18
Properties=species:S:1:pos:R:3 pbc="F F F"
C       -0.53306200       1.88854900       0.68782900
C       -0.33975600       0.51486700       1.26887700
C       -0.92749100       0.14536600       2.41515500
C        0.55470000      -0.43437600       0.49561200
C       -0.03172800      -0.83900900      -0.85671500
C        0.34360300      -0.11989500      -2.10662200
N        0.84819000      -1.46926800      -1.84453000
H       -1.16307600       2.50396800       1.32491000
H       -0.99583600       1.83102400      -0.29828900
H        0.42485800       2.39460700       0.56010400
H       -1.56388500       0.82767800       2.96480500
H       -0.78363000      -0.84663500       2.82530400
H        0.73117700      -1.33450300       1.09534500
H        1.53308000       0.03572600       0.33382100
H       -1.03169500      -1.28467200      -0.80714400
H        1.06231700       0.70003000      -2.04732300
H       -0.37136600      -0.04116000      -2.92699900
H        1.82313200      -1.43419300      -1.53764000
