18
Properties=species:S:1:pos:R:3 pbc="F F F"
C       -1.25677700       1.17849800       1.00073700
C        0.24773000       1.00244300       0.95232000
C        1.08409500       1.68574000      -0.08221400
N        0.91613800       0.23060000      -0.10651000
C        0.11760500      -0.33181500      -1.20288600
C       -0.48473300      -1.67060100      -0.87373800
C       -0.27871600      -2.35848900       0.24932800
H       -1.52277800       1.94207900       1.73117100
H       -1.75034900       0.25350700       1.29700800
H       -1.66317700       1.48511800       0.03972900
H        0.70526400       0.85233700       1.93991700
H        2.08695000       2.04156900       0.16498300
H        0.57333800       2.26220900      -0.85852500
H        0.77798200      -0.45118900      -2.08151000
H       -0.68677300       0.35548100      -1.54182600
H       -1.13019000      -2.09098300      -1.64689100
H        0.36302100      -1.97374500       1.03245200
H       -0.74147900      -3.32523400       0.40777700
