20
Properties=species:S:1:pos:R:3 pbc="F F F"
C        1.87149800       0.23592000       0.96097300
C        1.13346000       1.33088300       0.20228000
C       -0.22496900       0.91154800      -0.40420100
C       -0.11578900      -0.24590500      -1.42401900
N       -0.59323600      -1.47022300      -0.75626000
C       -1.17242500      -1.13647700       0.55699500
C       -1.23868900       0.39304500       0.63512100
H        2.82717000       0.60482100       1.32863400
H        2.06905300      -0.62341200       0.32334800
H        1.29656600      -0.10861200       1.81781900
H        1.77593600       1.70000400      -0.60585400
H        0.97054500       2.18272000       0.87271900
H       -0.63122100       1.80617700      -0.90232400
H        0.91005500      -0.38473900      -1.79439900
H       -0.73652300      -0.02492800      -2.31336900
H        0.15474300      -2.15703400      -0.66322200
H       -0.55334600      -1.55197500       1.37151700
H       -2.17394700      -1.58790300       0.67767900
H       -1.03094900       0.76191000       1.64349200
H       -2.24394300       0.74045600       0.37488400
