20
Properties=species:S:1:pos:R:3 pbc="F F F"
C       -2.03906100       0.25012000       0.67917500
C       -0.58247100      -0.00269500       1.10255300
C        0.09477200      -0.99062900       0.13241500
C        1.56277500      -0.96785700      -0.21157300
C        0.55477900      -0.69323500      -1.28082500
N        0.49147200       0.62474500      -1.89229900
C        0.15857200       1.32123700       1.32105800
H       -2.58329900      -0.68715500       0.58350000
H       -2.08766300       0.76378300      -0.27906000
H       -2.55469900       0.86561200       1.41368600
H       -0.61524500      -0.51061900       2.08273000
H       -0.31302300      -1.99791400       0.24923000
H        2.09649600      -1.91423900      -0.22464700
H        2.15492500      -0.13092700       0.14410400
H        0.38517100      -1.50429500      -2.00086600
H        1.02695300       1.30606500      -1.36286000
H       -0.46914600       0.95039600      -1.97500000
H        0.17944900       1.93078900       0.42068400
H        1.18405200       1.15318400       1.64227800
H       -0.34046200       1.90046300       2.09549400
