14
Properties=species:S:1:pos:R:3 pbc="F F F"
C       -2.24149100       0.23602800       0.66753500
C       -1.35256100      -0.11018400      -0.26338200
C       -0.61859900       0.87606500      -1.12911700
C        0.88164500       0.77973900      -1.12118300
C        1.66408000       0.07204600      -0.28794400
C        1.22184100      -0.76898200       0.78758700
N        0.96785000      -1.46636300       1.67363900
H       -2.76207900      -0.51338300       1.25035500
H       -2.46055100       1.27593800       0.88317700
H       -1.15535700      -1.16371300      -0.45773600
H       -0.90148800       1.90169600      -0.85426600
H       -0.95316200       0.75668900      -2.17174000
H        1.38100800       1.38179700      -1.88157800
H        2.74718600       0.11724500      -0.40466300
