18
Properties=species:S:1:pos:R:3 pbc="F F F"
N       -2.58596700      -1.30754200       0.10944600
C       -1.74834700      -0.14995000       0.45212100
C       -1.04406100       0.38800500      -0.76653700
C        0.27455500       0.58819000      -0.92615800
C        1.37101700       0.26037400       0.01583500
C        1.45627800      -0.91150600       0.67013600
C        2.44797300       1.30676700       0.14300500
H       -3.05389500      -1.66620700       0.93783100
H       -2.01961900      -2.05118200      -0.29032900
H       -1.02510600      -0.37935000       1.25716000
H       -2.40966800       0.64080700       0.84725700
H       -1.70361700       0.69172800      -1.58043400
H        0.60133600       1.08105900      -1.84449900
H        0.70985600      -1.68515000       0.54512800
H        2.29295600      -1.12434200       1.32439600
H        2.87915300       1.53533900      -0.83246300
H        3.24656400       0.97992600       0.80419800
H        2.03932400       2.23888000       0.53521400
