20
Properties=species:S:1:pos:R:3 pbc="F F F"
C       -0.41239800       1.23910300       2.09270600
C        0.43718000       0.87055000       0.87956900
C       -0.34746800       0.10253500      -0.19973500
N       -1.47256600       0.83181100      -0.78848400
C       -0.53289800      -1.38471000      -0.05303000
C        0.36603700      -0.84402500      -1.13691200
C        1.86096200      -1.08468400      -1.09657100
H        0.18165700       1.77191200       2.83241400
H       -0.82143000       0.34992800       2.56798600
H       -1.24573500       1.88052200       1.81179400
H        1.28913800       0.27080200       1.21146100
H        0.85419800       1.78576300       0.44206700
H       -2.17343400       1.04818700      -0.08252800
H       -1.15798500       1.70768600      -1.20123700
H       -1.48239400      -1.81572000      -0.35275500
H       -0.05818000      -1.87297700       0.79242400
H       -0.05664100      -0.88749000      -2.14114000
H        2.22791600      -1.18192800      -0.07725500
H        2.40631000      -0.26988500      -1.57357300
H        2.11605100      -2.00209200      -1.62642500
