19
Properties=species:S:1:pos:R:3 pbc="F F F"
C        0.32308500      -1.91342400      -1.29138100
C       -0.41345400      -0.58671600      -1.13459300
C        0.18619100       0.31642800      -0.05040800
C       -0.02994000      -0.13568300       1.39657200
N       -1.46058400      -0.23313900       1.70339900
C        1.40377400       1.11895400      -0.38090300
N        0.09494100       1.77245600      -0.26313200
H       -0.12899400      -2.51455100      -2.07752100
H        0.29217500      -2.49161900      -0.37032600
H        1.36824000      -1.75491500      -1.55169400
H       -1.46325300      -0.78378600      -0.89346100
H       -0.40562700      -0.05368500      -2.09211200
H        0.49172600       0.56810000       2.07620600
H        0.43247100      -1.12269800       1.55576600
H       -1.91455100       0.66053000       1.52952100
H       -1.60104700      -0.48316700       2.67893800
H        1.83131000       1.04592100      -1.38293800
H        2.11992500       1.37677300       0.40169500
H       -0.28080500       1.98052600      -1.19166300
