20
Properties=species:S:1:pos:R:3 pbc="F F F"
C        0.16945800       0.56875200       2.39750300
C       -0.30348100       0.23640500       0.97901500
C        0.18154600       1.29283800      -0.04657000
C       -0.24130300       0.91527900      -1.46820400
C        0.21304700      -0.50422800      -1.81676100
C       -0.26565700      -1.50626400      -0.75128500
N        0.14986000      -1.12742100       0.61073700
H       -0.19434800       1.54533700       2.71042400
H        1.25694600       0.58409900       2.45484000
H       -0.19053700      -0.17053500       3.10963800
H       -1.41030500       0.23083800       0.96826800
H        1.27322800       1.37405600       0.00295300
H       -0.21838700       2.27861600       0.21530800
H        0.16985100       1.63253700      -2.18830400
H       -1.33248600       0.97846300      -1.55260800
H        1.30668000      -0.53366300      -1.88041700
H       -0.16744400      -0.79225500      -2.80291500
H        0.12816300      -2.50971200      -0.96864300
H       -1.36348200      -1.57811300      -0.77870100
H        1.17143800      -1.16441700       0.67280500
