20
Properties=species:S:1:pos:R:3 pbc="F F F"
C       -0.22634300      -1.05893400      -2.97168900
C        0.21810000       0.13128800      -2.17896800
C       -0.04833800       0.39932500      -0.89309600
C       -0.87037500      -0.43653900       0.05131400
C       -0.15981100      -0.75863000       1.38017000
C       -0.01237300       0.42705500       2.34273900
N        1.00599400       1.38406100       1.90350200
H       -0.87632600      -0.75254900      -3.79365000
H       -0.76763600      -1.78348000      -2.36891800
H        0.63121200      -1.56300500      -3.42018200
H        0.82231700       0.84989000      -2.73407600
H        0.35573800       1.31685600      -0.46778900
H       -1.16215700      -1.37706300      -0.42689400
H       -1.80618600       0.09519600       0.27577000
H        0.82665600      -1.18808600       1.17681600
H       -0.73451900      -1.53981400       1.89135400
H        0.21927900       0.02821400       3.35476400
H       -0.97329400       0.95430500       2.43735800
H        1.90306500       0.92125100       1.78076900
H        1.11472900       2.12847000       2.58734600
