20
Properties=species:S:1:pos:R:3 pbc="F F F"
N       -0.85016800       0.07844400      -1.60013800
C       -0.95070100      -0.01306900      -0.14373000
C       -0.10150300      -1.11876400       0.58215000
C        0.61667000      -2.15965300      -0.26798500
C        0.76839000      -0.00912200       1.21320500
C       -0.17657800       1.07611800       0.65245200
C        0.46477800       2.22401700      -0.11739700
H       -1.28527800      -0.73070900      -2.03654700
H        0.12257700       0.11693900      -1.89333900
H       -2.02260200      -0.06092000       0.11968700
H       -0.70388600      -1.63448600       1.34410700
H        1.22827800      -1.69307900      -1.03815000
H       -0.09532500      -2.82037800      -0.76030900
H        1.27169000      -2.77430300       0.34714400
H        1.77484500       0.03714400       0.79062700
H        0.85979300      -0.04176900       2.30250300
H       -0.81207900       1.49557700       1.44674200
H        1.16182100       1.86136900      -0.87026900
H        1.01682400       2.87622300       0.55787500
H       -0.29181100       2.82211300      -0.62127400
