15
Properties=species:S:1:pos:R:3 pbc="F F F"
C       -1.87644100       0.90863400       1.42807600
C       -0.37580500       0.72458600       1.51367500
N        0.46077000       1.39082300       0.51027400
C        0.41435200      -0.07303400       0.52067900
C       -0.23787900      -0.76273900      -0.67838000
C        0.74636100      -1.16976300      -1.68206700
N        1.51871800      -1.50199100      -2.46776000
H       -2.18222700       1.81297200       1.95229700
H       -2.40028100       0.06996500       1.88623700
H       -2.20728100       0.99506800       0.39653000
H        0.02043200       0.73192300       2.53800200
H        1.33111600       1.73526800       0.92129000
H        1.31025500      -0.57992400       0.90011000
H       -0.96587000      -0.09523000      -1.15080500
H       -0.78609300      -1.65796600      -0.35315400
