20
Properties=species:S:1:pos:R:3 pbc="F F F"
C       -2.14798800       1.23294200       0.32935600
C       -0.64212200       1.18400900       0.18508000
C        0.01706300       1.74747700      -1.04193700
C        0.00244500       0.26263200      -0.81113800
C        1.30006300      -0.46449900      -0.48172200
C        1.08284100      -1.86040400       0.11605800
N        0.40249700      -1.79706600       1.41071000
H       -2.47465400       2.19752200       0.71866900
H       -2.50087100       0.46474800       1.01653700
H       -2.63923900       1.07603200      -0.62866400
H       -0.09784900       1.33128500       1.11951600
H        0.95852100       2.27398700      -0.91709900
H       -0.61955200       2.14691900      -1.82525600
H       -0.68025700      -0.30549100      -1.44588400
H        1.90324300      -0.56822400      -1.39322700
H        1.89377700       0.14168500       0.21178300
H        2.06689000      -2.37288100       0.19305700
H        0.47531900      -2.46896000      -0.57015900
H        0.92740200      -1.22294200       2.06509900
H        0.29598100      -2.72716100       1.80647800
