15
Properties=species:S:1:pos:R:3 pbc="F F F"
C       -0.76993200       0.34460400       2.01304600
C       -1.25804700       0.94843000       0.70345400
C       -0.46414500       0.46704700      -0.52979900
C        1.02425500       0.70733500      -0.50740300
N        1.71359400      -0.36849600      -0.71916900
N        0.78233800      -1.48178400      -0.88367300
C       -0.42241800      -1.02202400      -0.76301800
H       -1.36175300       0.71312700       2.84847500
H        0.27093400       0.60079000       2.19651000
H       -0.84720500      -0.74007200       1.99607000
H       -1.19657600       2.04135700       0.75606800
H       -2.31666700       0.70542300       0.55720000
H       -0.89616200       0.96056200      -1.41925600
H        1.51001500       1.67402900      -0.35904400
H       -1.29238500      -1.67561400      -0.85381200
