20
Properties=species:S:1:pos:R:3 pbc="F F F"
C        0.88313900       1.28747100      -0.32115400
C        0.40729200      -0.16837900      -0.32611700
C       -1.12392400      -0.28572200      -0.40969100
C       -1.99078900       0.65890300      -1.17039600
N       -1.95218200       0.69700900       0.29212400
C        0.91778300      -0.94633200       0.91344500
C        2.42246100      -1.18607900       0.91308100
H        1.96121700       1.34366200      -0.18751100
H        0.40975100       1.84360000       0.48429300
H        0.64005600       1.78167700      -1.25972300
H        0.82416400      -0.66298200      -1.22165200
H       -1.48422000      -1.32380400      -0.35733300
H       -2.90085200       0.27368800      -1.63655900
H       -1.55872300       1.52541000      -1.67183600
H       -2.78515000       0.25718500       0.68880600
H        0.40578200      -1.91490600       0.95461400
H        0.63090700      -0.40924800       1.82268600
H        2.73332200      -1.72274000       0.01835400
H        2.71621600      -1.77899500       1.77698300
H        2.97703400      -0.25077600       0.94900500
