16
Properties=species:S:1:pos:R:3 pbc="F F F"
C       -2.41179000       0.11160900       0.88475400
C       -1.20421900       0.04560700       0.93496800
C        0.23944400      -0.02172200       1.02562400
C        1.10246900       0.72593200       0.04068900
C        1.04123700      -0.78448200      -0.02116300
C        0.34577500      -1.50716800      -1.15246800
N        0.47671000       1.56424700      -0.96384900
H       -3.47181700       0.16179100       0.84393700
H        0.61052600      -0.08489900       2.05190900
H        2.02662000       1.15152200       0.45154700
H        1.91227300      -1.30916200       0.37773000
H       -0.51437100      -0.94435400      -1.50648100
H       -0.00451800      -2.48800300      -0.83293400
H        1.02306400      -1.65631600      -1.99383800
H       -0.51522900       1.35392200      -1.04598500
H        0.91899400       1.44711200      -1.87336700
