14
Properties=species:S:1:pos:R:3 pbc="F F F"
C       -0.16034100       1.77128800      -0.73867100
N       -1.00553500       0.64206300      -0.31845600
C       -0.18732100      -0.59126700      -0.27745400
C        1.23244800      -0.08120100      -0.41410600
C        1.23644400       1.22629900      -0.68377600
C       -0.42166300      -1.39548100       0.94622400
C       -0.60510100      -2.09472900       1.91426100
H       -0.29136500       2.64840000      -0.07495400
H       -0.41702100       2.12727900      -1.75720700
H       -1.84393500       0.53696600      -0.88931000
H       -0.42982000      -1.25676300      -1.14416000
H        2.10680000      -0.71697000      -0.32029900
H        2.12037100       1.83419600      -0.85066100
H       -0.77308200      -2.67699900       2.78691700
