16
Properties=species:S:1:pos:R:3 pbc="F F F"
C        1.99246300       0.66698200      -1.44356200
C        0.68332800       1.39634400      -1.17141200
C       -0.39110600       0.59107800      -0.44319800
N       -0.70028200      -0.78278900      -0.83858300
C       -0.07607800      -0.55439700       0.47651600
C       -0.87495300      -0.80144900       1.66555700
C       -1.48097100      -0.97462300       2.69791900
H        2.65911300       1.29755700      -2.02717000
H        1.82959700      -0.25066500      -2.00647400
H        2.50652000       0.40788300      -0.52004100
H        0.26535400       1.74578000      -2.12330700
H        0.89188800       2.30172700      -0.58942400
H       -1.28405900       1.17964400      -0.20223400
H       -0.00587100      -1.13646200      -1.50180600
H        0.97423600      -0.85716600       0.57312000
H       -2.05091000      -1.15238400       3.57649500
