20
Properties=species:S:1:pos:R:3 pbc="F F F"
C       -1.03190400      -2.05855700       0.38150000
C       -1.16829600      -0.95131100       1.41874000
C       -0.13296100       0.17314500       1.26331200
C       -0.30894000       0.98816600      -0.01287900
C        0.77823800       1.93822300      -0.46124800
C        0.43507000       0.71652200      -1.28320200
N        1.36102700      -0.39949700      -1.40082600
H       -1.79304800      -2.82205400       0.53058900
H       -0.05818000      -2.53913400       0.44951000
H       -1.13870100      -1.66684600      -0.62669600
H       -1.07210200      -1.38227800       2.42157300
H       -2.17555600      -0.52336200       1.36494100
H        0.87797000      -0.24551200       1.30895700
H       -0.22051900       0.84578800       2.12642800
H       -1.32618400       1.36396600      -0.14613100
H        1.70809300       1.92552700       0.09764300
H        0.48424800       2.91798400      -0.82558700
H       -0.11621500       0.90087400      -2.21169000
H        1.74667500      -0.65066700      -0.49466600
H        2.12908900      -0.16492400      -2.02643900
