20
Properties=species:S:1:pos:R:3 pbc="F F F"
C       -0.34469700       0.36332500      -2.21216000
C       -0.68895100       1.19041500      -0.97855100
C       -0.73288700       0.44196300       0.36943100
C       -1.05450800      -1.06420200       0.43020900
N        0.08800400      -1.29282000       1.34115200
C        0.57567800       0.10248300       1.14446500
C        1.91541000       0.21088400       0.42078100
H       -0.29127200       1.00600800      -3.08889100
H       -1.10232700      -0.39322800      -2.40582700
H        0.61312200      -0.14126400      -2.11152500
H       -1.66714000       1.65630800      -1.14459700
H        0.02232400       2.02005300      -0.89294200
H       -1.40680500       1.00332000       1.03348800
H       -0.95814300      -1.59613100      -0.52893000
H       -2.03112100      -1.33337100       0.86546900
H        0.74198600      -2.00298000       1.00413200
H        0.65521400       0.64703200       2.10784200
H        1.93230300      -0.38100000      -0.49174500
H        2.71903900      -0.14813100       1.06220500
H        2.13652200       1.24391100       0.15821700
