18
Properties=species:S:1:pos:R:3 pbc="F F F"
C        1.26085000      -0.46606400       2.83420100
C        0.36676000       0.29502400       1.90708200
C       -0.21698600      -0.23049500       0.82266000
C       -1.13933100       0.53342200      -0.08873700
C       -0.75712600       0.49853400      -1.57017800
C        0.63574000       0.23679100      -2.02788400
N       -0.41267400      -0.76676500      -2.22190200
H        0.86110200      -0.46172100       3.84975300
H        2.25069500      -0.00924700       2.88344600
H        1.37811800      -1.49998600       2.51800200
H        0.19430100       1.34304400       2.15384800
H       -0.04665900      -1.28061800       0.58194000
H       -1.19521400       1.57852500       0.23830500
H       -2.15899500       0.13107300       0.01303500
H       -1.37794900       1.15468600      -2.19377900
H        1.39988000       0.01977800      -1.27960200
H        1.00705200       0.70631900      -2.94054000
H       -0.32305400      -1.51777000      -1.53395800
