19
Properties=species:S:1:pos:R:3 pbc="F F F"
C        0.73050100      -0.78522900       1.68611600
C        0.19637700      -0.45873700       0.29615200
C       -1.33758200      -0.34841900       0.20347400
N       -1.88977400       0.83789700       0.87373700
N        0.89777600      -1.13562900      -0.81659600
C        1.08123800       0.31612500      -0.64150500
C        0.55560900       1.26744600      -1.69631900
H        1.81417900      -0.87100300       1.67630700
H        0.32124900      -1.72727400       2.05058100
H        0.45785300      -0.00943300       2.40230800
H       -1.65164900      -0.33459800      -0.84940200
H       -1.79380300      -1.24069300       0.65532900
H       -1.49000600       1.68661600       0.48070900
H       -1.67806200       0.81658900       1.86824200
H        0.24680000      -1.31486100      -1.58643400
H        2.07955800       0.57793900      -0.26912500
H       -0.41650700       0.95919000      -2.07444300
H        1.23984100       1.31686300      -2.54320600
H        0.45766800       2.27767300      -1.29835600
