15
Properties=species:S:1:pos:R:3 pbc="F F F"
C       -1.48521200       0.02035200      -1.31082300
C        0.02757400       0.01701200      -1.30638400
C        0.85835400      -0.77437100      -0.30249500
C        0.85245700       0.73224100      -0.25935000
N        0.23836700       1.07731500       1.01232600
N       -0.26236100      -0.08017500       1.62225400
C        0.14703200      -1.12881200       0.96158900
H       -1.87682800      -0.84608600      -1.84434300
H       -1.86856100       0.91217600      -1.80811400
H       -1.88442400       0.00234500      -0.30032900
H        0.47723400       0.04145300      -2.30098700
H        1.69451200      -1.37018800      -0.67206700
H        1.69917100       1.35554700      -0.56935700
H       -0.41837100       1.86183400       1.03379200
H       -0.05600200      -2.13560100       1.32412600
