20
Properties=species:S:1:pos:R:3 pbc="F F F"
C       -1.87425800      -0.40380600      -0.45403600
C       -0.37412900      -0.39302100      -0.18804100
C        0.02004400      -0.43732000       1.29392200
C       -0.39000500       0.80655500       2.07760200
C        0.50088800      -1.15544200      -1.16584700
C        0.51187600       0.34077100      -1.18099300
N        1.72051100       1.04732900      -0.78065500
H       -2.34334000      -1.29326800      -0.03211600
H       -2.07993600      -0.39256600      -1.52246400
H       -2.36333400       0.46395400      -0.01145700
H        1.10369900      -0.57225800       1.37663600
H       -0.43383700      -1.31942000       1.76167300
H        0.06050100       1.70317800       1.65593100
H       -0.07277900       0.72874500       3.11570900
H       -1.46941300       0.94101900       2.06898600
H        0.01851700      -1.67613400      -1.98784000
H        1.37641800      -1.65973900      -0.76806500
H       -0.00017000       0.82035100      -2.02252300
H        2.29935700       0.46971800      -0.17787500
H        1.49423900       1.90869000      -0.28764800
