16
Properties=species:S:1:pos:R:3 pbc="F F F"
C        0.36447200       2.65454800      -0.41256700
C       -0.34016600       1.30286400      -0.38467000
C        0.07668500       0.45762900       0.81144900
N        1.27523800      -0.36901800       0.67539700
C       -0.02820300      -1.04222300       0.79776300
C       -0.54182600      -1.76527100      -0.35370600
C       -1.04403800      -2.38594000      -1.26250200
H        0.04727500       3.23892200      -1.27378600
H        1.44310400       2.52778200      -0.46972600
H        0.14293200       3.23098000       0.48425600
H       -0.12254000       0.75223600      -1.30323400
H       -1.42575500       1.45751100      -0.35878600
H       -0.06185400       0.93678200       1.79108900
H        1.78939700      -0.42365400       1.55794000
H       -0.22615200      -1.53848900       1.75788900
H       -1.43462100      -2.92857500      -2.08802600
