17
Properties=species:S:1:pos:R:3 pbc="F F F"
C       -1.57024300       0.09979200       1.76115100
C       -1.48745100       0.67119100       0.36178900
N       -0.52037300       1.74175000       0.07027000
C       -0.32964600       0.42209500      -0.55577600
C        0.86647700      -0.41039600      -0.15516100
C        1.97757000      -0.66565200      -1.11891100
N        1.01481800      -1.71956900      -0.80281000
H       -2.20844100       0.71864200       2.39144300
H       -0.59180100       0.04531600       2.23408200
H       -1.99508100      -0.90376000       1.75060400
H       -2.46349100       0.83106800      -0.11236400
H        0.12447200       1.85604500       0.85723000
H       -0.54004800       0.41305400      -1.63150400
H        1.14177100      -0.36495900       0.90691100
H        2.99310200      -0.78313500      -0.73494500
H        1.91562400      -0.26908600      -2.13324800
H        1.42254000      -2.40063600      -0.15897500
