18
Properties=species:S:1:pos:R:3 pbc="F F F"
C       -2.92858700       1.13532700       0.68703400
C       -1.43740200       1.10282500       0.80235300
C       -0.63038100       0.43407400      -0.03431200
C        0.85004900       0.40865700       0.10473700
N        1.65603000       0.19398300      -1.11181500
C        1.66345700      -0.84660400      -0.08542000
C        1.04849100      -2.18703600      -0.42512600
H       -3.28865100       2.15819800       0.56238700
H       -3.39935800       0.74447800       1.59115700
H       -3.27561300       0.54718700      -0.15942900
H       -1.00276400       1.66959500       1.62667900
H       -1.05824000      -0.12879100      -0.86245800
H        1.25911700       1.13178300       0.82357200
H        2.51332100       0.75010700      -1.07639200
H        2.58032900      -0.91003800       0.51795800
H        0.19536900      -2.07125400      -1.08796800
H        0.71498600      -2.70401300       0.47441200
H        1.77553300      -2.82858900      -0.92280300
