17
Properties=species:S:1:pos:R:3 pbc="F F F"
C        0.20169800      -0.00579100       1.96868200
C       -0.80716700      -0.01002200       0.81400900
C       -0.65284400       1.24144400      -0.06706500
N        0.56600900       1.13241000      -0.85144600
C        1.00190100      -0.10778200      -1.29155000
N        0.50986200      -1.25904300      -0.94848000
C       -0.66083100      -1.27205400      -0.06357600
H        0.08721700       0.88357300       2.58775900
H        1.22165000      -0.02567800       1.59224100
H        0.06316700      -0.87863100       2.60411300
H       -1.82161800       0.00014000       1.24620600
H       -0.60633500       2.15425100       0.54995800
H       -1.54209100       1.35675100      -0.72185700
H        0.87535500       1.95635700      -1.35705800
H        1.87484400      -0.07091100      -1.96329400
H       -0.61013400      -2.16619600       0.57882500
H       -1.56969500      -1.39799400      -0.68041800
