20
Properties=species:S:1:pos:R:3 pbc="F F F"
C        1.71361800      -0.38356600      -0.84576000
C        0.84957100      -0.88012400       0.32059700
C        0.00402000       0.20573800       1.02236100
N        0.14895100       1.63814900       0.72651900
C       -1.13269500       0.97838600       0.42658900
C       -1.60535200       0.85439500      -1.00614600
C       -0.02010400      -2.07597900      -0.09923700
H        2.32923100      -1.19813700      -1.22203000
H        2.37992600       0.41509400      -0.52688300
H        1.11505200      -0.01551700      -1.67618900
H        1.55064400      -1.25135700       1.08726600
H       -0.09166500       0.01068100       2.09935100
H        0.68227100       1.77153100      -0.13606800
H       -1.93331300       1.26595800       1.12124300
H       -0.79066900       0.63460500      -1.69107400
H       -2.07097800       1.78419100      -1.33382500
H       -2.35160500       0.06613500      -1.10511700
H       -0.71715600      -1.80357000      -0.88849100
H       -0.59787200      -2.44861700       0.74424400
H        0.59912900      -2.89113800      -0.46848200
