18
Properties=species:S:1:pos:R:3 pbc="F F F"
C        1.40365600       1.27383200       1.44247600
C        0.61958900       0.88239100       0.21695400
C        1.10052700       1.11220800      -1.01582700
C       -0.70713000       0.24320200       0.49800100
N       -1.67324400      -0.04622200      -0.57181900
C       -1.03459100      -1.17573300       0.10478600
C       -0.06601900      -2.05873500      -0.64968500
H        2.36080900       1.71604000       1.17954900
H        1.58931500       0.40770400       2.07916300
H        0.84705900       1.99446400       2.04331200
H        2.06792000       1.57682300      -1.15699700
H        0.54043600       0.85428100      -1.90638600
H       -1.17632400       0.59867500       1.42411600
H       -1.24766800       0.10962500      -1.48923800
H       -1.70926400      -1.72025300       0.77829500
H        0.62792700      -1.47187300      -1.24712200
H       -0.59935800      -2.73278000      -1.31990400
H        0.51566400      -2.67214500       0.03772000
