18
Properties=species:S:1:pos:R:3 pbc="F F F"
C       -1.44665900      -0.05002000      -0.90658200
C        0.03779500       0.06417600      -0.59796300
C        1.01518300      -0.52114900      -1.58490200
C        0.87403300       0.96611600      -1.46919200
C        0.41942600      -0.01265900       0.87414300
C       -0.26885200      -0.91307300       1.84515600
N       -0.51430300       0.52949100       1.86568000
H       -1.63690400       0.12119700      -1.96376200
H       -2.01488000       0.68001000      -0.33305200
H       -1.82955400      -1.03869300      -0.65298000
H        0.62234200      -0.99583700      -2.47812900
H        1.92728200      -0.96987200      -1.20267300
H        0.38633200       1.48914400      -2.28543000
H        1.69154800       1.51299100      -1.00883500
H        1.48374800       0.18044600       1.06773900
H        0.30851400      -1.33365400       2.67167400
H       -1.11308400      -1.52439600       1.52441100
H       -0.01078500       0.97187400       2.63731600
