20
Properties=species:S:1:pos:R:3 pbc="F F F"
C        1.12593100       1.79201300      -0.25470100
C        0.62629200       0.34429800      -0.14027800
C       -0.90517300       0.31157600      -0.05461000
C       -1.71337200      -0.74282000      -0.73012100
N       -1.64925600       0.61182700      -1.28056800
C        1.28127300      -0.35972000       1.07079500
C        0.99855900      -1.85526700       1.13924700
H        2.20695000       1.82222800      -0.38050200
H        0.87823600       2.36481600       0.63775800
H        0.66996200       2.28726200      -1.10880600
H        0.92468800      -0.19113700      -1.05427600
H       -1.32349300       0.73304800       0.86995600
H       -2.65852500      -1.05648600      -0.28091100
H       -1.21716500      -1.50903600      -1.32774400
H       -2.50628600       1.12773400      -1.07099400
H        0.94077200       0.11896300       1.99585500
H        2.36408900      -0.20181300       1.02693700
H       -0.06637200      -2.05392000       1.24101800
H        1.50371700      -2.30328200       1.99258100
H        1.34715400      -2.36164800       0.24110600
