20
Properties=species:S:1:pos:R:3 pbc="F F F"
C        1.30997800       0.60689300       2.64246900
C        1.12307100       0.36108600       1.15058000
C       -0.30128600      -0.08808200       0.81007900
C       -0.58905000      -0.23991900      -0.68910500
C       -2.05026400      -0.54080000      -1.00432800
C        0.44901000      -0.75516500      -1.63670600
N        0.11470700       0.67276700      -1.60389000
H        2.32516400       0.93422000       2.85739100
H        1.12170100      -0.29813600       3.21743800
H        0.62756400       1.37479500       3.00192500
H        1.84103200      -0.39547400       0.81697900
H        1.35483900       1.27369600       0.59451800
H       -1.01237500       0.63561700       1.22750300
H       -0.51897800      -1.03910600       1.31297600
H       -2.20768300      -0.66268900      -2.07421700
H       -2.69843700       0.26480200      -0.65920800
H       -2.37778700      -1.45564700      -0.51051400
H        0.12422400      -1.31872900      -2.51415800
H        1.44989400      -1.00572900      -1.28339400
H       -0.48085600       0.91893400      -2.39794100
