16
Properties=species:S:1:pos:R:3 pbc="F F F"
C       -0.75099000       2.58130700       0.01840900
C       -0.14707900       1.26916200       0.50712000
C        0.49900200       0.47241000      -0.61870500
C       -0.30784300      -0.47967700      -1.44202400
C        0.72285600      -1.01583100      -0.48086800
C        0.28817900      -1.71307600       0.71288300
N       -0.03998400      -2.28163400       1.66052200
H       -1.19221800       3.13345000       0.84506100
H       -1.52929800       2.40282500      -0.72053900
H        0.00596400       3.21352000      -0.44183700
H       -0.92058200       0.66118400       0.98508800
H        0.60335100       1.48024400       1.27766600
H        1.28957800       1.00396600      -1.15212000
H       -0.08836200      -0.56520700      -2.50195800
H       -1.35151900      -0.62096200      -1.18222500
H        1.63822100      -1.42336200      -0.91367800
