16
Properties=species:S:1:pos:R:3 pbc="F F F"
C       -3.16684700       0.24820200       0.65373900
C       -1.70925600       0.22798400       0.65122300
C       -0.49747900       0.23315700       0.64887400
C        0.95275400       0.21085900       0.67594800
C        1.73876100       0.97374300      -0.37328000
C        1.73903200      -0.51582700      -0.40822400
N        1.06803600      -1.20238300      -1.49596700
H       -3.54653000       1.04620500       0.01239700
H       -3.54891600       0.41569900       1.66246400
H       -3.57437300      -0.69826200       0.29188400
H        1.38236700       0.20397500       1.68097500
H        2.63759700       1.48750500      -0.04454500
H        1.17076300       1.49922900      -1.13322100
H        2.65404400      -1.02038100      -0.08206100
H        0.26254500      -0.66549800      -1.80857300
H        0.74446500      -2.12049000      -1.19722400
