20
Properties=species:S:1:pos:R:3 pbc="F F F"
C        0.27989100       0.10484500      -2.04653100
C        0.06086000       0.04006900      -0.52302100
C       -1.45746100      -0.07745400      -0.22049100
C       -1.82934700      -0.17371700       1.25417400
C        0.82625800       1.12340700       0.28674600
C        1.52197500      -0.02653600       1.02266900
N        0.89679500      -1.02342900       0.12679300
H        1.34037000       0.14528500      -2.28282500
H       -0.19564300       0.98734000      -2.47111400
H       -0.13958700      -0.77154500      -2.53724000
H       -1.96732900       0.78564400      -0.66217800
H       -1.84530400      -0.95869500      -0.74380300
H       -1.52672200       0.71636500       1.80160700
H       -1.35984500      -1.03316200       1.72905000
H       -2.90618000      -0.28171200       1.36638900
H        0.21555000       1.78469900       0.90609300
H        1.49601300       1.74071800      -0.31685300
H        1.22549400      -0.13313900       2.07882000
H        2.62327500      -0.02916600       0.98285200
H        0.34928600      -1.73231500       0.62037000
