18
Properties=species:S:1:pos:R:3 pbc="F F F"
C        1.46409600      -0.00550700       1.98282400
C        0.82799800       1.24229600       1.45480600
C       -0.07937100       1.34307000       0.46984700
C       -0.63416200       0.25719400      -0.38447800
C       -1.96320100       0.13866400      -0.54239300
C        0.34903600      -0.61133600      -1.14910700
N       -0.28450200      -1.75765100      -1.79738000
H        1.46855600       0.01041600       3.07298600
H        2.50657000      -0.08334500       1.66539900
H        0.94253300      -0.90261100       1.66064200
H        1.11709300       2.15896800       1.97010400
H       -0.49209100       2.33527300       0.27753500
H       -2.64848700       0.79059300      -0.01442600
H       -2.38374100      -0.62210000      -1.18733000
H        1.17795100      -0.91814900      -0.47776500
H        0.82364500       0.00942500      -1.92723800
H       -0.70292100      -2.37744700      -1.10842900
H        0.39603400      -2.28375500      -2.33882000
