19
Properties=species:S:1:pos:R:3 pbc="F F F"
C       -2.79659300      -0.07508700      -0.29891000
C       -1.30765500      -0.17906300      -0.62316300
C       -0.49837200      -1.28959000       0.07800600
C        0.44817500      -0.18118900       0.58088300
N       -0.45761500       0.86540000       0.01817100
C        1.86024300      -0.18904700      -0.01914300
N        2.63032200       0.96147000       0.45764900
H       -3.34114500      -0.92522700      -0.70643900
H       -3.22148700       0.83266100      -0.72341900
H       -2.96226700      -0.05088200       0.77575100
H       -1.17335300      -0.19942000      -1.72359300
H       -0.04793900      -2.03405700      -0.58459200
H       -1.03935500      -1.81498500       0.86857900
H        0.51929400      -0.11093800       1.68275500
H        0.00495200       1.47826500      -0.65829700
H        1.79254800      -0.21330400      -1.12821900
H        2.38032100      -1.11352100       0.27627400
H        2.11776100       1.82576500       0.30197000
H        3.52693200       1.02140500      -0.01754900
