19
Properties=species:S:1:pos:R:3 pbc="F F F"
C       -0.32492500       0.15472200       2.23446600
C       -0.62047200       0.23277100       0.75029100
C        0.30923900       0.96332000      -0.19065100
C        0.18005500      -0.53947700      -0.30031300
C        1.33848900      -1.43027200       0.11746500
N       -0.54791200      -1.06900900      -1.45747200
N       -0.25339400       1.85382600      -1.19861700
H       -0.74144300       1.01526800       2.75834200
H        0.74519000       0.13777400       2.42831000
H       -0.75940100      -0.74121700       2.67876100
H       -1.68168600       0.34322800       0.51706900
H        1.24008700       1.33682900       0.25321600
H        1.93777400      -0.96480200       0.89643800
H        1.98897600      -1.63406400      -0.73198400
H        0.98376400      -2.39031500       0.49456900
H       -1.22822000      -0.39266500      -1.79417700
H       -1.03481800      -1.92975700      -1.21552600
H       -1.26596700       1.78312800      -1.23935400
H        0.13056500       1.65650000      -2.12058900
