20
Properties=species:S:1:pos:R:3 pbc="F F F"
C       -1.76240200       0.28223200       1.11243600
C       -0.25928100       0.11664000       1.03481500
C        0.58732000       0.89535500       0.03846100
C        0.43325900      -0.59477100      -0.12340400
C        1.62690400      -1.48242100       0.20127100
N       -0.34512300      -1.11116500      -1.24768100
C       -0.01501800       1.90107600      -0.92029400
H       -2.03171900       1.20821400       1.62124800
H       -2.21193400      -0.53979400       1.66957800
H       -2.22091600       0.30185100       0.12619300
H        0.20975100      -0.01544600       2.01210400
H        1.55436200       1.21601000       0.43343100
H        2.19683700      -1.08490800       1.03819000
H        2.29552500      -1.56600800      -0.65464400
H        1.30487300      -2.49085300       0.46268100
H       -1.07610000      -0.46141200      -1.52118700
H       -0.77222900      -2.00357800      -1.00810100
H       -0.99828600       1.59768100      -1.27157400
H        0.62375100       2.03384800      -1.79335900
H       -0.12274500       2.87388500      -0.44050100
