17
Properties=species:S:1:pos:R:3 pbc="F F F"
N       -1.95411600       0.30304800       0.86188700
C       -0.72135800       0.32457800       0.45188200
N        0.01820600       1.45504600       0.15969200
C        1.30593300       1.16478900      -0.44169100
C        1.50936400      -0.34479700      -0.21644500
C        0.14265500      -0.90778300       0.24381900
C       -0.49146200      -1.88803600      -0.74897200
H       -2.36227300       1.23821300       0.93956600
H       -0.42166000       2.36161200       0.03723400
H        2.10962700       1.76402100       0.02080400
H        1.31438800       1.41961900      -1.51932800
H        2.27218200      -0.51421700       0.54871900
H        1.86915800      -0.83443200      -1.12437700
H        0.25924800      -1.43240300       1.20395100
H       -0.60334800      -1.43500800      -1.73216900
H       -1.47730200      -2.18445000      -0.39977700
H        0.12055800      -2.78210800      -0.85723600
