14
Properties=species:S:1:pos:R:3 pbc="F F F"
C       -2.78039900       0.29704400       0.32496600
C       -1.43998300       0.24286800       0.33555300
C       -0.59907900       1.16245100      -0.42246500
C        0.74804300       1.16293200      -0.43734200
C        1.63852400       0.21971600       0.34533600
C        1.44934600      -1.18980300      -0.00749100
N        1.31834800      -2.30113200      -0.27602900
H       -3.37597800      -0.40138400       0.89913200
H       -3.31000400       1.03996800      -0.26099500
H       -0.93905900      -0.51908400       0.93102400
H       -1.11853200       1.90865600      -1.02340000
H        1.26272000       1.90479000      -1.04552200
H        1.46386100       0.32686700       1.42562300
H        2.68983900       0.47686000       0.17499200
