17
Properties=species:S:1:pos:R:3 pbc="F F F"
C       -0.87931800       0.73729500       1.75156100
C        0.60547800       0.72840900       1.46990200
C        1.15804100       1.41679300       0.26249100
C        1.19806400      -0.08587900       0.33173300
C        0.35855500      -0.92330900      -0.57282400
N       -0.64914800      -0.43479800      -1.22565400
N       -1.33576800      -1.30660500      -2.08111200
H       -1.18250100       1.67743000       2.21279500
H       -1.15329600      -0.06769100       2.43344100
H       -1.44887600       0.61266900       0.83334900
H        1.22939300       0.77454100       2.36550500
H        2.09624900       1.95603400       0.35767400
H        0.45071500       1.85230400      -0.43535500
H        2.17315400      -0.52490700       0.55116000
H        0.63324500      -1.99381800      -0.65587900
H       -2.31947900      -1.04626700      -2.15382000
H       -1.22910300      -2.29032900      -1.81868100
