19
Properties=species:S:1:pos:R:3 pbc="F F F"
C       -0.73900900       0.79641200       2.74825200
C       -0.80150300       0.75835600       1.23543600
C        0.34030600       1.22009900       0.38819300
N        0.05667500      -0.20970800       0.53969400
C       -0.53243200      -0.89104700      -0.62551400
C        0.54500300      -1.36958000      -1.60711400
N        1.13765600      -0.25682400      -2.35325700
H       -1.06441800       1.76458100       3.12953400
H        0.27402900       0.61822600       3.10071000
H       -1.38573100       0.03702400       3.18756900
H       -1.80620400       0.90208300       0.81192400
H        1.26296800       1.56421500       0.85906700
H        0.11846300       1.67791900      -0.57825700
H       -1.26129800      -0.24432300      -1.15680200
H       -1.09785900      -1.76494000      -0.26348000
H        0.09482800      -2.12409100      -2.28956600
H        1.34308400      -1.88690200      -1.05801600
H        0.42973800       0.23013600      -2.89682000
H        1.85790300      -0.59363200      -2.98644000
