17
Properties=species:S:1:pos:R:3 pbc="F F F"
C        1.49480400      -1.56807300       1.32270100
C        1.47622500      -0.28174100       0.50437100
C        0.30045400       0.61845300       0.86147400
C       -0.18762700       1.66071600      -0.10943000
N       -0.98569500       0.46466800       0.17767700
N       -1.09194300      -0.53909500      -0.80238100
C       -1.48153100      -0.19242400      -1.98116000
H        2.35070100      -2.18454100       1.05556800
H        0.59269600      -2.15001600       1.14995600
H        1.55553700      -1.35270300       2.38807900
H        1.43191700      -0.52382800      -0.56148700
H        2.41398000       0.26523600       0.66514400
H        0.20229200       0.84894000       1.93081200
H        0.28128700       1.71326500      -1.09358500
H       -0.59402300       2.60342500       0.26231800
H       -1.64105900      -0.97205600      -2.72905500
H       -1.66381900       0.85168300      -2.28256400
