20
Properties=species:S:1:pos:R:3 pbc="F F F"
C        0.63397600      -0.81321600       1.68539900
C        0.18407400      -0.47494000       0.26862800
C       -1.33514300      -0.32747600       0.10866800
C       -1.90399600       0.91210000       0.79286600
C        0.94888400      -1.13240900      -0.86799300
C        1.11655100       0.34442500      -0.57668100
N        0.61740100       1.35769900      -1.49602000
H        1.71449500      -0.93021100       1.73610700
H        0.17953100      -1.74239900       2.02951800
H        0.34960900      -0.03026400       2.38788100
H       -1.59153300      -0.30317300      -0.95586000
H       -1.82339100      -1.22074700       0.51640100
H       -1.44769600       1.81852200       0.40188200
H       -1.72568000       0.88585700       1.86575300
H       -2.97889200       0.97918600       0.63547400
H        0.38592400      -1.41206000      -1.75277900
H        1.76152100      -1.80701800      -0.61593300
H        2.06423600       0.63534200      -0.11198500
H       -0.31277500       1.12284700      -1.83082800
H        1.23676000       1.44932100      -2.29881700
