16
Properties=species:S:1:pos:R:3 pbc="F F F"
C        1.38464200      -0.70869500      -0.37907100
C        1.43511900       0.77149700      -0.11834700
C        0.35090600       1.47094800       0.24093900
C       -0.96724100       0.80650800       0.41494700
C       -0.96390500      -0.68924400       0.44084200
N        0.31779900      -1.37924200       0.37947400
C       -1.55229600       0.02009700      -0.74988700
H        2.35103900      -1.16928500      -0.10760000
H        1.28102600      -0.88792800      -1.47617600
H        2.39246100       1.27131800      -0.25652300
H        0.41689000       2.54258400       0.42497100
H       -1.68740200       1.32882700       1.04678800
H       -1.66847800      -1.18083800       1.12097000
H        0.19494200      -2.33507100       0.03617100
H       -2.63252200       0.03337800      -0.86111000
H       -0.99589900       0.02505000      -1.68034600
