18
Properties=species:S:1:pos:R:3 pbc="F F F"
C       -2.92677700       0.15785900      -0.88480800
C       -2.24165300       0.48448600       0.40449100
C       -0.98297700       0.18520400       0.75385700
C        0.03863700      -0.55631100      -0.07006400
C        1.33211700       0.23821600      -0.24168900
C        2.43885400       0.12134900       0.74844500
N        2.56456800      -0.47782300      -0.58225300
H       -3.78744400      -0.48956400      -0.70746200
H       -2.26952100      -0.34077900      -1.59211500
H       -3.30755400       1.06558100      -1.35557700
H       -2.85468800       1.02470900       1.12655700
H       -0.63983600       0.50159200       1.73959300
H       -0.36953800      -0.80943400      -1.05423500
H        0.27352600      -1.50986300       0.42347700
H        1.21796200       1.19548300      -0.76324500
H        2.32051500      -0.56127500       1.59245500
H        3.09338000       0.97305800       0.93925200
H        2.42201500      -1.48956900      -0.53431000
