16
Properties=species:S:1:pos:R:3 pbc="F F F"
C       -0.28874100       0.12622000       2.21329300
C       -0.62642400       0.20347100       0.74084400
C        0.23825800       0.93001000      -0.25001100
C        0.18603300      -0.58408900      -0.26660700
C       -0.48894600      -1.26392100      -1.35236500
N       -1.02422900      -1.80891400      -2.21616500
C        1.51324500       1.64025000       0.14836700
H       -0.61054700       1.02795900       2.73331100
H        0.78035400       0.00848500       2.37431200
H       -0.79200800      -0.71988400       2.67945800
H       -1.69705400       0.24484200       0.53504200
H       -0.30277700       1.41679800      -1.06273000
H        1.06296800      -1.11086600       0.11267300
H        2.06303900       1.08404400       0.90405800
H        1.29778500       2.63032900       0.54902300
H        2.16729700       1.76904500      -0.71312100
