18
Properties=species:S:1:pos:R:3 pbc="F F F"
C       -2.46125900      -0.01822300      -0.69903500
C       -0.95210700      -0.01859800      -0.58710700
C       -0.28087500       0.77444100       0.50319000
C       -0.28838900      -0.72623900       0.56508000
C        1.14791300      -1.19280000       0.33733600
N        1.89098800      -0.01661900      -0.17090600
C        1.16012400       1.20538100       0.23733000
H       -2.81452600       0.83958900      -1.27153100
H       -2.92813900       0.02147100       0.28288800
H       -2.81820200      -0.91690600      -1.20240200
H       -0.42994500      -0.05952100      -1.54620200
H       -0.89847300       1.36745500       1.17767500
H       -0.91221300      -1.25507800       1.28568700
H        1.23576000      -2.02234500      -0.37859900
H        1.58515000      -1.54592100       1.28840300
H        1.93410100      -0.05949900      -1.19110900
H        1.25587600       1.97154000      -0.54517400
H        1.60125700       1.63177900       1.15594300
