19
Properties=species:S:1:pos:R:3 pbc="F F F"
C        0.32165400       1.15283700       2.42722300
C        0.07007200       1.20702200       0.93500800
C        1.10895000       1.70724900      -0.01702800
N        0.81618400       0.27393800       0.08113800
C        0.08031300      -0.31894800      -1.04911300
C       -0.64807600      -1.59289200      -0.61414500
N       -1.34116600      -2.20915600      -1.74883500
H        0.07279900       2.10246000       2.90110100
H        1.36592100       0.93473100       2.63704200
H       -0.28450400       0.38048000       2.90038000
H       -0.97478100       1.39156300       0.64718400
H        2.08899300       2.01045900       0.35573700
H        0.77920200       2.22807300      -0.91991500
H        0.79809600      -0.55826600      -1.84754900
H       -0.64722800       0.39767700      -1.48426500
H       -1.34626800      -1.35343700       0.21611800
H        0.07491400      -2.31417800      -0.20893000
H       -2.00827700      -1.56088400      -2.15982500
H       -1.84146500      -3.04376300      -1.45486100
