18
Properties=species:S:1:pos:R:3 pbc="F F F"
C       -1.30667500      -1.93814600       0.83181800
C       -1.02589800      -0.77720600      -0.08372100
C       -1.57860600      -0.68313500      -1.30244100
C       -0.07056900       0.25287100       0.44209100
N        0.01850400       1.54679600      -0.25395100
C        1.16591500       0.64360700      -0.32421300
C        2.44486300       1.01148300       0.39748100
H       -1.99315200      -2.64714200       0.37644200
H       -1.74352600      -1.59552500       1.77122300
H       -0.38622100      -2.46665200       1.08557400
H       -2.25527000      -1.44355300      -1.67140200
H       -1.37104900       0.16933400      -1.93653800
H        0.01264600       0.29364100       1.53591600
H        0.19193300       2.29893800       0.41721200
H        1.30533000       0.18609200      -1.31048900
H        2.23678300       1.45663700       1.36890000
H        3.02629000       1.72900100      -0.18147300
H        3.07252500       0.13481500       0.55620700
