20
Properties=species:S:1:pos:R:3 pbc="F F F"
C        2.83890200      -0.69301900       0.11014800
C        1.97858400       0.16405900      -0.76475600
C        0.64609800       0.10762200      -0.89901500
C       -0.29389600      -0.84756100      -0.21371500
C       -1.51014400      -0.16372800       0.45857900
N       -2.40835500       0.41280300      -0.56178000
C       -1.07542900       0.88035600       1.50698000
H        3.52919500      -1.28541700      -0.49321900
H        2.25839200      -1.37658400       0.72387700
H        3.44923600      -0.07564700       0.77095700
H        2.51876800       0.90723300      -1.35210600
H        0.17963200       0.80749600      -1.59321600
H        0.24021200      -1.43565700       0.53828800
H       -0.67550300      -1.56152300      -0.95545600
H       -2.08162100      -0.95436300       0.98081000
H       -1.93434100       1.15393300      -1.07264700
H       -3.23090900       0.81341600      -0.11715300
H       -0.51853700       1.69080700       1.04156700
H       -0.43894300       0.42941000       2.26524300
H       -1.94177900       1.31090700       2.00618600
