16
Properties=species:S:1:pos:R:3 pbc="F F F"
C       -1.84509000       0.65689900       0.37164000
C       -0.33590900       0.36917100       0.43309000
C       -0.00954300      -0.51278900       1.56911500
C        0.26550000      -1.23279100       2.49958500
C        0.17034000      -0.23193900      -0.88901300
C        1.55834800       0.01327200      -1.36985200
N        0.42479600       0.71076700      -1.97912800
H       -2.19310500       1.10649300       1.29888800
H       -2.41102000      -0.25772100       0.20724700
H       -2.06277500       1.34180100      -0.44475800
H        0.19174800       1.32454500       0.59243700
H        0.50242900      -1.86263200       3.32144600
H       -0.29562700      -1.18408700      -1.17216100
H        2.05301100      -0.75535100      -1.96676700
H        2.23123600       0.64223300      -0.78559100
H        0.18864900       0.29841000      -2.88423500
