19
Properties=species:S:1:pos:R:3 pbc="F F F"
C        0.41352300       1.24858700       2.17211700
C        0.10044600       1.19170600       0.69136900
N        1.13973100       1.59203700      -0.26897800
C        0.74615400       0.17744500      -0.19889300
C        0.03399500      -0.40350900      -1.41433800
C       -0.60803900      -1.76843300      -1.14079800
N       -1.70058000      -1.66794800      -0.17032000
H        0.35163400       2.27016700       2.54657600
H        1.41599800       0.87792200       2.37796600
H       -0.29048000       0.64731600       2.74739700
H       -0.90250200       1.54012300       0.41979500
H        2.03054200       1.74010900       0.21126500
H        1.47931300      -0.49263200       0.27160300
H        0.75318200      -0.51388800      -2.23520900
H       -0.72754700       0.30124400      -1.75952800
H        0.17633000      -2.48188800      -0.80599100
H       -1.01221300      -2.17635400      -2.07882000
H       -1.36761800      -1.27091800       0.70446000
H       -2.09716800      -2.58460500       0.01883800
