16
Properties=species:S:1:pos:R:3 pbc="F F F"
C       -0.25554600      -2.80367600      -2.00353500
C       -0.24578900      -1.72223100      -1.46559700
C       -0.23535200      -0.40898700      -0.82010700
C        0.56670600      -0.41259600       0.49014200
C        0.54493900       0.89749000       1.27328200
C        0.28731600       2.22850100       0.65432700
N       -0.71200700       1.60724700       1.52529400
H       -0.26477100      -3.75553700      -2.47464700
H       -1.27226200      -0.10006100      -0.62952600
H        0.18430700       0.32524200      -1.52025100
H        1.60818900      -0.67205100       0.26810200
H        0.19083200      -1.21496900       1.13545500
H        1.21102900       0.88018000       2.14530900
H        0.05628900       2.29065100      -0.41075900
H        0.77317300       3.11563100       1.06348900
H       -1.47637500       1.20917500       0.97470000
