20
Properties=species:S:1:pos:R:3 pbc="F F F"
C        1.49290900       2.43867000       0.11047100
C        0.97235000       1.10819200       0.56078300
C        0.19059600       0.25783600      -0.13045600
C       -0.25167800      -1.05618600       0.52223400
N       -0.04424700      -2.19990700      -0.39103100
C       -1.72256200      -0.97143900       1.00176800
C       -0.30799600       0.51547800      -1.52755600
H        2.57800600       2.40799100      -0.00820600
H        1.28045400       3.20563100       0.85672500
H        1.06446500       2.75930200      -0.83525500
H        1.28577400       0.81028200       1.56246800
H        0.38018700      -1.22990100       1.41204600
H       -0.61932600      -2.09740700      -1.22366500
H       -0.31099400      -3.06560900       0.07182100
H       -2.39943100      -0.80385700       0.16607000
H       -1.85600700      -0.15749000       1.71078400
H       -2.01857700      -1.89798200       1.49081500
H       -0.21170600       1.55945100      -1.81391500
H       -1.35677600       0.23265900      -1.62387500
H        0.25194800      -0.07903500      -2.25206300
