20
Properties=species:S:1:pos:R:3 pbc="F F F"
C       -1.83422300       0.92333900      -0.08324800
C       -0.93349100      -0.24060700       0.36193900
C        0.40892000      -0.21871200      -0.41104400
C        0.28458100      -0.51138600      -1.90351600
C        1.70400200      -0.58591200       0.24653300
N        1.37579000       0.81798400      -0.01888900
C       -0.75292200      -0.21355700       1.88402600
H       -2.78374800       0.89853900       0.44793200
H       -2.04677900       0.87603400      -1.14930800
H       -1.35727200       1.87833800       0.12422300
H       -1.44711700      -1.18131100       0.09806800
H        1.26183200      -0.52264400      -2.38213000
H       -0.32337400       0.23843700      -2.40873800
H       -0.18369400      -1.48045500      -2.07563700
H        2.48961600      -1.03317100      -0.36690600
H        1.74456700      -0.86323000       1.30003700
H        1.89273000       1.16034200      -0.83206000
H       -0.15195900       0.64037000       2.18677100
H       -0.26663200      -1.11813800       2.24418000
H       -1.71990800      -0.13798800       2.37765600
