18
Properties=species:S:1:pos:R:3 pbc="F F F"
C        1.41238000       1.73852700       1.15008800
C        0.37680800       0.71188400       1.60591700
C        0.05004800      -0.31437100       0.53788900
C        0.36673500      -1.60887500       0.70192000
C       -0.64575500       0.20846600      -0.68350500
C       -0.32369200      -0.31896300      -2.04836500
N       -1.59220600      -0.64713100      -1.41804100
H        1.60979700       2.45934800       1.94092900
H        1.06732300       2.28651100       0.27535200
H        2.35230800       1.25578800       0.89249600
H       -0.54312700       1.23764100       1.89081600
H        0.74059000       0.20399400       2.50369400
H        0.86667900      -1.95256400       1.59823300
H        0.13671500      -2.35078200      -0.05403800
H       -0.96302100       1.25503200      -0.61702700
H        0.41926900      -1.11463100      -2.13497400
H       -0.38495100       0.34875400      -2.91035300
H       -1.57529000      -1.59918400      -1.04250800
