18
Properties=species:S:1:pos:R:3 pbc="F F F"
C       -0.29850400      -0.53223200      -2.19791100
C       -0.39052500      -0.72010500      -0.68700200
N        0.55958800      -1.71805300      -0.11875700
C        1.26159900      -0.67093300       0.65359200
C        0.25316300       0.40469700       0.18415800
C       -0.62809600       1.00160500       1.24213000
C       -0.87220600       2.30727200       1.37009000
H       -0.62204500      -1.43214700      -2.71894200
H        0.72192500      -0.31489000      -2.50953400
H       -0.93203700       0.28993200      -2.52597500
H       -1.43690900      -0.95125800      -0.40771800
H        1.14830500      -2.16460300      -0.82559800
H        2.29698000      -0.49143800       0.32328100
H        1.28165000      -0.86899700       1.73719300
H        0.71710800       1.20048200      -0.41463400
H       -1.09351900       0.29877300       1.93423000
H       -0.42797600       3.03404300       0.69927500
H       -1.52317700       2.68465600       2.14938200
