22
Properties=species:S:1:pos:R:3 pbc="F F F"
N       -1.36326400       1.95749100      -1.76880900
C       -1.65390000       0.52304500      -1.70144400
C       -1.17257100      -0.09836000      -0.38429800
C        0.35561100      -0.15580100      -0.26524100
C        0.85706200      -0.93770300       0.97080100
C        2.37789000      -1.13489500       0.89800600
C        0.46497300      -0.25735200       2.28884600
H       -1.66209500       2.34094600      -2.66160600
H       -0.36696000       2.12840600      -1.66118400
H       -1.20445600      -0.02964500      -2.55470900
H       -2.74241400       0.38643700      -1.78870000
H       -1.57769300      -1.11404500      -0.30824300
H       -1.59143700       0.46649700       0.45361200
H        0.76381800       0.86009900      -0.24019000
H        0.76569500      -0.62786300      -1.16584200
H        0.38773100      -1.93508800       0.95300100
H        2.89776700      -0.17889200       0.91626600
H        2.66108200      -1.65133800      -0.01721600
H        2.73384900      -1.72359000       1.74107900
H        0.88636100       0.74392600       2.35193500
H        0.83243200      -0.82845900       3.13923300
H       -0.61522000      -0.17343500       2.38420400
