15
Properties=species:S:1:pos:R:3 pbc="F F F"
N        1.09977700       1.04367300       0.07574100
C       -0.22343700       1.44490300       0.56347000
C       -1.35322800       0.80005600      -0.20597500
C       -1.45878100      -0.52950200      -0.31488200
C       -0.46172400      -1.47073700       0.31274100
N        0.88888900      -1.36183500      -0.27195200
C        1.49756300      -0.21712300      -0.33879400
H        1.74730200       1.80079200      -0.11140200
H       -0.28029800       2.53813700       0.47673700
H       -0.32169500       1.22226900       1.64769300
H       -2.08760100       1.45265300      -0.67724300
H       -2.28207800      -0.95289300      -0.89155500
H       -0.80647800      -2.50961300       0.19562500
H       -0.40903800      -1.28570400       1.40328600
H        2.51686800      -0.20408700      -0.76902200
