16
Properties=species:S:1:pos:R:3 pbc="F F F"
C       -3.38616800      -0.10466400       0.22790600
C       -1.88429500      -0.11702600       0.25839200
C       -1.12032500       0.29636900      -0.76084200
C        0.38443500       0.31418300      -0.80331600
C        1.07545500      -0.18410100       0.47208400
C        2.53310300      -0.12775600       0.36238600
N        3.67988800      -0.08374100       0.27953600
H       -3.79728500      -0.48162400       1.16026000
H       -3.77410500      -0.72272100      -0.58222900
H       -3.77433200       0.90272100       0.07509600
H       -1.41904800      -0.48700800       1.17089100
H       -1.60401100       0.66317700      -1.66639500
H        0.72185900       1.33613100      -1.02026100
H        0.72370400      -0.28755900      -1.65678100
H        0.78247600      -1.21835800       0.68848300
H        0.76828800       0.41939700       1.33452100
