19
Properties=species:S:1:pos:R:3 pbc="F F F"
N       -0.62585400       0.17973300       1.94166100
C       -0.93365200       0.22804100       0.52020600
C       -0.07324700       1.00675700      -0.44900500
C       -0.08734700      -0.52483300      -0.48477900
C        1.14234600      -1.29335600      -0.02261100
C       -0.82188700      -1.18827400      -1.64432600
N        1.07128900       1.74824500       0.05186400
H       -0.65164900       1.10859300       2.35717700
H        0.28076000      -0.24094000       2.11984600
H       -2.01213000       0.24060200       0.31728300
H       -0.59712600       1.50752300      -1.27280500
H        1.74488500      -0.71262400       0.67346700
H        1.77551400      -1.54696700      -0.87247800
H        0.86453900      -2.22618300       0.46843000
H       -1.67811100      -0.59417600      -1.95844300
H       -1.18509100      -2.17808100      -1.36632300
H       -0.16590400      -1.31191000      -2.50626500
H        1.91890600       1.53360200      -0.46908000
H        1.23009200       1.55470400       1.03760800
