20
Properties=species:S:1:pos:R:3 pbc="F F F"
C       -2.46882200      -0.07481000      -0.53744100
C       -0.94166000      -0.10585800      -0.56650400
C       -0.32433300      -1.38020900       0.05184100
C        0.91945800      -0.90426400       0.83916400
N        1.07167100       0.55414400       0.60054500
C       -0.27413000       1.04428700       0.22565400
C        2.10250600       0.87507500      -0.39422300
H       -2.88865700      -0.89907600      -1.11171000
H       -2.84786800       0.85323300      -0.96276100
H       -2.84473100      -0.15271900       0.48145600
H       -0.61668900      -0.03368900      -1.61649900
H       -0.05939100      -2.10936900      -0.71897900
H       -1.03581500      -1.87830200       0.71733400
H        1.83275500      -1.43490300       0.54458200
H        0.77853800      -1.09184900       1.91772300
H       -0.20367400       1.97664900      -0.34611100
H       -0.85437100       1.26158900       1.13889300
H        3.07176400       0.49608700      -0.05818200
H        2.18424300       1.96005100      -0.50635000
H        1.90407300       0.44795600      -1.39415900
