12
Properties=species:S:1:pos:R:3 pbc="F F F"
C       -2.98363400       0.57077400       0.63934900
C       -1.77755400       0.54011700       0.55807400
C       -0.32892500       0.43813000       0.51837700
N        0.39248600       1.20540300      -0.50111900
C        0.35977800      -0.25546500      -0.63432600
C        1.57827900      -1.00640900      -0.38964100
C        2.58922700      -1.64297300      -0.19909000
H       -4.04281000       0.64163200       0.68476000
H        0.14858300       0.36123900       1.50308700
H        1.29911900       1.51571800      -0.14168400
H       -0.25731000      -0.62589300      -1.45983100
H        3.48199500      -2.19555700      -0.03495600
