16
Properties=species:S:1:pos:R:3 pbc="F F F"
C       -2.41890600      -0.07832000       0.07931800
C       -1.07552300      -0.05876400      -0.02707600
C       -0.29932700       1.23340900      -0.22347100
N        1.05381100       1.18556200       0.36178700
C        1.83201700       0.03527900      -0.13245900
C        1.06372200      -1.26172800      -0.07547400
C       -0.27966500      -1.28849800      -0.00672100
H       -2.99916200       0.83632000       0.05697200
H       -2.95938800      -1.01121700       0.18888300
H       -0.84180400       2.08358000       0.21126500
H       -0.20519100       1.43690600      -1.30365000
H        0.96680700       1.10758900       1.37920800
H        2.75473500      -0.04129900       0.46121100
H        2.15390300       0.23134900      -1.17200600
H        1.63031900      -2.19252800      -0.09457900
H       -0.81080000      -2.23790200       0.05549000
