19
Properties=species:S:1:pos:R:3 pbc="F F F"
C       -1.94538400      -0.36767900       0.30588300
C       -0.42376700      -0.39758100       0.46726300
N        0.02954500      -0.45352100       1.85941300
C        0.39738200      -1.20276900      -0.52755800
C        0.47294100       0.31840700      -0.51159400
C        1.75300700       0.97265800      -0.02039600
N       -0.14219100       1.06704000      -1.61197500
H       -2.40389100      -1.18092500       0.86851800
H       -2.24745100      -0.47602200      -0.73301900
H       -2.36281600       0.56656300       0.68135300
H       -0.35425100      -1.27241100       2.32730800
H       -0.27622400       0.37317700       2.36912200
H       -0.13397700      -1.67883800      -1.34577900
H        1.24031000      -1.76426000      -0.13927300
H        2.17844700       0.41672200       0.81013700
H        1.56521400       1.99325800       0.31095000
H        2.49584300       1.01852100      -0.81774100
H       -0.96165700       0.58658000      -1.97256300
H        0.52389800       1.18478600      -2.37266500
