19
Properties=species:S:1:pos:R:3 pbc="F F F"
C       -2.25819200      -0.69367100      -0.31631500
C       -0.73789400      -0.56049700      -0.37633400
N        0.01673700      -1.69913400       0.21533200
C        0.85872600      -0.77745800       1.00460000
C       -0.05114300       0.40763200       0.62426500
C        0.59667700       1.70393900       0.08464200
N        1.54928000       1.52201900      -1.01491200
H       -2.60196500      -1.49963400      -0.96245400
H       -2.74037800       0.22667200      -0.64130100
H       -2.59306100      -0.91167700       0.69532400
H       -0.42897400      -0.36336500      -1.42426700
H        0.53260800      -2.25974000      -0.46651300
H        1.89238100      -0.69322000       0.62687100
H        0.91352700      -1.02897400       2.07642600
H       -0.72622900       0.67482400       1.45002300
H       -0.19734400       2.38528000      -0.25448300
H        1.11529300       2.21368700       0.90996600
H        1.09754900       1.08352100      -1.81377200
H        2.32542700       0.93275800      -0.72390200
