18
Properties=species:S:1:pos:R:3 pbc="F F F"
C       -2.19803400      -0.02347500       0.86044100
C       -0.68538300      -0.15792700       1.07686200
C       -0.08015800      -1.40667800       0.46989600
C        0.93268400      -1.10331600      -0.34388700
C        1.15641900       0.39360000      -0.40188600
N        0.07246600       0.95994600       0.44850600
C        1.14224800       0.97773500      -1.82026000
H       -2.73073600      -0.84576000       1.33388000
H       -2.44855800      -0.02663200      -0.19866600
H       -2.56703600       0.90640000       1.28958100
H       -0.50519100      -0.16346300       2.17757300
H       -0.42890800      -2.40912400       0.69995700
H        1.54484200      -1.81833600      -0.88562400
H        2.14998100       0.63074600       0.04608500
H       -0.55134000       1.54382500      -0.11095100
H        0.20243500       0.76636900      -2.32682100
H        1.94826000       0.55858700      -2.41932000
H        1.27233400       2.05812900      -1.79223500
