18
Properties=species:S:1:pos:R:3 pbc="F F F"
C        2.44859600      -1.33463200      -0.68342200
C        1.48868600      -0.59496500      -1.56206300
C        0.30099500      -0.08083500      -1.20557000
C       -0.32218800      -0.13085100       0.14294700
C       -1.83383700      -0.23640900       0.25572100
C       -1.13025700       1.03715000       0.63748300
N       -1.00853800       1.43800100       2.03131400
H        2.65698700      -2.32603100      -1.08986200
H        2.07430700      -1.45653300       0.32954000
H        3.40441100      -0.80980400      -0.62980300
H        1.80902600      -0.46970800      -2.59622000
H       -0.28333800       0.43487200      -1.96863100
H        0.23551300      -0.67424000       0.90549400
H       -2.22563200      -0.86664900       1.04763100
H       -2.40449900      -0.25773600      -0.66740700
H       -1.24323600       1.88669900      -0.04201100
H       -0.81063900       0.63554500       2.62329800
H       -1.86510100       1.88082700       2.35820000
