18
Properties=species:S:1:pos:R:3 pbc="F F F"
C       -1.55591900      -0.63816900      -1.44409100
C       -0.07215600      -0.48117200      -1.23650700
C        0.49484700       0.02864700      -0.12502700
C       -0.21017700       0.52441100       1.09010000
N        0.49635300       1.52308500       1.91064800
C        0.30071900       0.18738700       2.45927000
C        0.78412000      -0.95013900      -2.38558600
H       -2.14046500      -0.19436200      -0.64291600
H       -1.82500700      -1.69416700      -1.51021400
H       -1.86241100      -0.17680500      -2.38364400
H        1.58163600       0.08703800      -0.08214700
H       -1.29505300       0.66382900       1.00753400
H       -0.16666500       2.18425800       2.32089600
H       -0.41852400       0.07699500       3.27452200
H        1.20687700      -0.41043700       2.56584300
H        0.55531600      -0.39214400      -3.29505000
H        0.59811900      -2.00221800      -2.60766600
H        1.84309200      -0.82937900      -2.17064300
