18
Properties=species:S:1:pos:R:3 pbc="F F F"
C       -2.05408400      -0.87304600      -0.40328100
C       -0.52076000      -0.82533200      -0.31242300
C       -0.02651800       0.56281100      -0.40839000
C        0.37246300       1.70064500      -0.50288500
C        0.86374000       3.06908300      -0.60627800
C       -0.01994400      -1.52207000       0.97501800
N        1.43813400      -1.60798800       0.99903500
H       -2.40425100      -0.40776100      -1.32169200
H       -2.51276600      -0.34978700       0.43315100
H       -2.40738600      -1.90304100      -0.38908600
H       -0.11086600      -1.38377600      -1.17475200
H        0.67743400       3.61995500       0.31770700
H        0.36948700       3.60025600      -1.42220600
H        1.93858300       3.08239400      -0.79669900
H       -0.49850300      -2.52439700       1.03850000
H       -0.35813500      -0.96349500       1.85855900
H        1.79027100      -2.09573700       0.17946000
H        1.75980900      -2.09124900       1.83324700
