20
Properties=species:S:1:pos:R:3 pbc="F F F"
C        1.20850800       1.14755500      -0.49642900
C        0.68273000      -0.29070000      -0.51924900
C       -0.85189200      -0.36466100      -0.57196500
C       -1.68447200       0.53713800      -1.41863800
N       -1.64664900       0.70476000       0.03486000
C        1.23565000      -1.12926600       0.66083000
C        0.83831700      -0.62078400       2.04054700
H        2.29175100       1.15774900      -0.39046400
H        0.77811600       1.70642900       0.33033000
H        0.95722600       1.66900600      -1.41797400
H        1.06068400      -0.77154800      -1.44058200
H       -1.24579200      -1.38174400      -0.43165000
H       -2.60680400       0.14470800      -1.85353100
H       -1.22019700       1.33959000      -1.99306800
H       -2.49503100       0.33062300       0.46491000
H        2.32842600      -1.16258500       0.58853500
H        0.88967300      -2.16340500       0.54530500
H        1.24444700       0.37054200       2.22719100
H        1.21369200      -1.28664600       2.81543300
H       -0.24269800      -0.56173400       2.14096800
