19
Properties=species:S:1:pos:R:3 pbc="F F F"
C       -2.24867000      -0.39526200      -0.68398300
C       -0.73483700      -0.29681000      -0.82853200
C        0.11998400      -1.39685400      -0.16021100
C        1.05405900      -0.32033400       0.42468000
C        0.00579800       0.77747900       0.01010200
N        0.46906000       1.95964700      -0.72450300
N        1.40247400      -0.47315400       1.84124100
H       -2.63491200      -1.26106400      -1.21992400
H       -2.73478400       0.49196600      -1.08543600
H       -2.54002300      -0.49318200       0.36059300
H       -0.47634800      -0.19675700      -1.89192500
H        0.57934600      -2.12688500      -0.83238400
H       -0.42373700      -1.94186100       0.61470200
H        1.98567100      -0.22715500      -0.15798700
H       -0.59430600       1.11044900       0.87241400
H        1.05260400       1.68989000      -1.51300800
H        1.00753100       2.57427500      -0.11883400
H        0.56485200      -0.56242600       2.41132300
H        1.93536400       0.32798700       2.17095200
