15
Properties=species:S:1:pos:R:3 pbc="F F F"
C       -2.05671400      -0.41640900      -0.35428200
C       -0.72899300      -0.40496300      -0.12120500
C        0.17229800      -1.59434200       0.08292000
N        1.44674400      -0.97967000       0.48034600
N        1.39793800       0.39531400       0.26767900
C        0.16473300       0.75515100      -0.01178200
C       -0.22964900       2.18438900      -0.20957200
H       -2.61049500      -1.34434400      -0.42442700
H       -2.60786100       0.50819800      -0.47103800
H        0.28950200      -2.19086000      -0.84018100
H       -0.19700400      -2.28923600       0.85564000
H        2.30111000      -1.40792200       0.11308200
H        0.62850700       2.84240600      -0.10054800
H       -0.98731200       2.48804500       0.51537000
H       -0.65927700       2.34124500      -1.20055100
