20
Properties=species:S:1:pos:R:3 pbc="F F F"
C       -1.26900600      -2.02986700       0.62832400
C       -1.40680300      -0.51125200       0.62406300
C       -0.91920200       0.12337400      -0.67223100
C       -0.76600200       1.61934200      -0.75639600
C        0.44929600       0.74225300      -0.78447800
N        1.33800400       0.76895700       0.37015400
C        2.31896900      -0.31404800       0.38329500
H       -1.64610100      -2.45035000       1.55854100
H       -0.22840100      -2.33071100       0.52232100
H       -1.82881300      -2.47688700      -0.19130500
H       -0.84636200      -0.08858600       1.46301300
H       -2.45984600      -0.24810200       0.78801200
H       -1.29433000      -0.35830300      -1.57792700
H       -0.95019900       2.19236000       0.14647100
H       -1.06637500       2.11662100      -1.67404600
H        0.94821100       0.63484800      -1.76562200
H        1.82057600       1.67024800       0.42019700
H        1.81422400      -1.28137500       0.45162700
H        2.97210300      -0.20660100       1.25248400
H        2.95577700      -0.33467300      -0.52030900
