20
Properties=species:S:1:pos:R:3 pbc="F F F"
C       -3.01266800      -0.27963500      -1.65950800
C       -1.52280100      -0.41960300      -1.64417700
C       -0.76964100      -0.34319500      -0.53991400
C        0.72824400      -0.49770500      -0.53224000
C        1.47595800       0.70703600       0.06940900
C        1.24391500       0.92275400       1.56965000
N        1.83772500      -0.14920200       2.37307200
H       -3.31873600       0.56021800      -2.28587900
H       -3.40956400      -0.11995700      -0.65955800
H       -3.48375500      -1.17173100      -2.07596700
H       -1.04442100      -0.59324400      -2.60848400
H       -1.25174900      -0.16575000       0.42172500
H        1.08267800      -0.65883000      -1.55605200
H        0.99717500      -1.40175300       0.03163100
H        1.18272300       1.61510300      -0.46769500
H        2.54794700       0.57334900      -0.10788200
H        0.15756600       1.03608100       1.76946000
H        1.70813400       1.87481100       1.86791400
H        1.44397900      -1.05117700       2.11774900
H        1.66590500       0.00937300       3.36222000
