18
Properties=species:S:1:pos:R:3 pbc="F F F"
C       -0.96641900       0.90822000       2.21539300
C       -1.33860000       0.83153100       0.74932700
N       -0.42749600       1.38630400      -0.26439300
C       -0.64791300      -0.06800200      -0.22774200
C        0.48735600      -0.99866400       0.17386500
C        1.43295400      -1.35957800      -0.94310800
C        1.45680300      -0.80793200      -2.15618000
H       -1.26073400       1.86959000       2.63548100
H        0.10498500       0.79623500       2.36768400
H       -1.47134800       0.13211700       2.79095200
H       -2.39393200       1.05492700       0.54897400
H        0.47507800       1.61519100       0.16011700
H       -1.25084400      -0.43553200      -1.06744700
H        1.07095300      -0.55426600       0.99149900
H        0.06989100      -1.92768500       0.58926700
H        2.15890700      -2.13682600      -0.69897900
H        0.76234200      -0.02704400      -2.44023300
H        2.18209200      -1.12428600      -2.89589800
