15
Properties=species:S:1:pos:R:3 pbc="F F F"
C       -2.46061200      -0.07938000       0.01060600
C       -0.96164300       0.00503400      -0.03392500
C       -0.29589300       1.17785500       0.02074300
C        1.20490200       1.22012200      -0.05618300
N        1.78105600      -0.09540800       0.22643000
N        1.12156700      -1.26386600      -0.01105400
C       -0.18451800      -1.23669200      -0.12456400
H       -2.91577900       0.90834300       0.02692900
H       -2.79556700      -0.62153400       0.89645300
H       -2.84663000      -0.61951300      -0.85489700
H       -0.82788400       2.12594800       0.07653700
H        1.61422800       1.95340900       0.67015900
H        1.54099300       1.60568500      -1.05471200
H        2.79329100      -0.16550200       0.09492200
H       -0.69443200      -2.19355700      -0.26308900
