18
Properties=species:S:1:pos:R:3 pbc="F F F"
C       -2.19910700      -0.39003400       0.28013300
C       -0.70638900      -0.41555300       0.19866700
C        0.07581200      -1.50232100       0.12062400
C        1.54069500      -1.16258500       0.06914700
C        1.57858700       0.37360500      -0.03285700
C        0.11846700       0.86318500       0.23364500
N       -0.37290500       1.87937700      -0.71346500
H       -2.61956800      -1.39159100       0.21901800
H       -2.61957400       0.21182900      -0.52647100
H       -2.52966100       0.06352300       1.21654000
H       -0.28459800      -2.52680000       0.11186700
H        2.04683700      -1.64549400      -0.77643600
H        2.05882300      -1.51867600       0.97013000
H        1.90232300       0.68255000      -1.03114200
H        2.28983600       0.81114600       0.67289700
H        0.05392200       1.31043400       1.24594000
H       -0.32907600       1.52680900      -1.66671700
H        0.19268200       2.72284600      -0.65752800
