20
Properties=species:S:1:pos:R:3 pbc="F F F"
C        0.67047800      -2.51496000       0.70312600
C        0.90922300      -1.12886800       0.11700900
C       -0.39521100      -0.42699100      -0.28531200
C       -1.24637800       0.12697800       0.88043700
C       -0.98723700       1.56578000       0.41190700
C       -0.26762100       1.01447700      -0.85166700
N        1.08210700       1.50103800      -1.14541100
H        1.61039300      -2.98353600       0.98842700
H        0.17738300      -3.16480600      -0.01744600
H        0.04032500      -2.46320300       1.58906600
H        1.55725100      -1.21110600      -0.76178700
H        1.45067500      -0.51603200       0.84591700
H       -0.96378900      -1.09358600      -0.95135500
H       -0.87351000      -0.10607000       1.88103500
H       -2.29841200      -0.16607500       0.83683200
H       -0.32851700       2.12617600       1.07960700
H       -1.87959200       2.17055200       0.22975900
H       -0.88034700       1.14685500      -1.75927900
H        1.66535200       1.47518200      -0.31262000
H        1.04851600       2.45989600      -1.48328100
