16
Properties=species:S:1:pos:R:3 pbc="F F F"
C       -2.56070400       0.26200700       0.29634200
C       -1.06881500       0.19178300       0.22115900
C       -0.30179900      -0.91964100       0.11909300
C        1.16863700      -0.52433200       0.12499600
C        1.09503700       0.98522000       0.15479000
C       -0.19209200       1.37413300       0.24420500
N        2.00229500      -1.06484600      -0.96336500
H       -3.00607400      -0.72989200       0.27826400
H       -2.96709700       0.83304300      -0.53999000
H       -2.88370600       0.76427600       1.20939200
H       -0.66603900      -1.94106700       0.08674700
H        1.61948300      -0.86756500       1.08125700
H        1.96223200       1.63656300       0.14514400
H       -0.54604600       2.39738500       0.31940600
H        1.63085100      -0.77183000      -1.86416200
H        1.99874900      -2.08201000      -0.93602200
