20
Properties=species:S:1:pos:R:3 pbc="F F F"
C        0.19566200      -2.22068800      -0.51492300
C        0.65351200      -1.76807700       0.86627600
C       -0.24224500      -0.70319500       1.52034800
C       -0.04737300       0.73403100       1.00845700
C       -0.62997700       1.00510800      -0.37470900
C       -0.32628500       2.28344100      -1.07938700
N        0.24463200       1.02052200      -1.55213300
H        0.83652300      -3.01919300      -0.88408000
H        0.22608500      -1.40721000      -1.23405700
H       -0.82376700      -2.60025600      -0.48059500
H        1.68210300      -1.39571300       0.80990200
H        0.68333000      -2.64113400       1.52793900
H       -0.03905300      -0.70392300       2.59716800
H       -1.29372700      -0.98928800       1.40965000
H        1.01825200       0.98881700       1.01437300
H       -0.52466200       1.41265600       1.72816700
H       -1.61127000       0.55155300      -0.55865800
H        0.35794300       2.99386700      -0.61069600
H       -1.06951200       2.73472500      -1.73877900
H        1.22556200       0.94772100      -1.27177500
