17
Properties=species:S:1:pos:R:3 pbc="F F F"
C       -2.09508800      -0.31207400      -0.06512400
N       -0.64878100      -0.42875800      -0.18568200
N       -0.05955700      -1.44970600       0.55306300
C        1.14037000      -1.10066000       0.91564000
C        1.50718400       0.30607000       0.49918300
C        0.16329300       0.82005100      -0.05329400
C        0.26502600       1.57936300      -1.37949000
H       -2.55117400      -1.29990400      -0.14793800
H       -2.48740600       0.32025300      -0.86842300
H       -2.41446900       0.13529900       0.89394300
H        1.79577400      -1.79469500       1.43925500
H        2.29517300       0.30783600      -0.26688300
H        1.88714500       0.91184100       1.33085500
H       -0.32142600       1.48956300       0.69236100
H        0.74291300       0.97179800      -2.14537000
H        0.84935100       2.48948900      -1.25879600
H       -0.72222800       1.86127000      -1.74216100
