14
Properties=species:S:1:pos:R:3 pbc="F F F"
C       -1.29230700      -1.37597300       1.94638200
C       -1.70678600      -1.07840100       0.71499800
C       -0.83302500      -0.62220700      -0.42557500
C        0.64215900      -0.73148700      -0.17566800
C        1.53060100       0.25709600      -0.37708700
C        1.17578500       1.57049700      -0.83696400
N        0.92727100       2.63513300      -1.20988300
H       -1.99465800      -1.68628600       2.71000100
H       -0.24812800      -1.31386600       2.22870900
H       -2.76935800      -1.14486800       0.47961100
H       -1.09416300       0.40948400      -0.69244500
H       -1.08525600      -1.22698300      -1.31102900
H        1.00969600      -1.69621900       0.17242000
H        2.59240100       0.09565200      -0.19459200
