20
Properties=species:S:1:pos:R:3 pbc="F F F"
C       -0.70668300       2.98450900       0.31841000
C       -0.24995100       2.16777600      -0.84947400
C       -0.40818600       0.84853900      -1.02291000
C       -1.09762500      -0.10976200      -0.08462800
C       -0.12575900      -0.97607800       0.73749400
C        0.75908200      -1.88755400      -0.11737400
N        1.57326900      -2.76168900       0.73250300
H       -1.38278700       3.77732900      -0.00629500
H        0.14307700       3.47306000       0.79835600
H       -1.21850000       2.38669100       1.06752500
H        0.26806600       2.72741300      -1.62913100
H       -0.00248500       0.40595100      -1.93319500
H       -1.74963500      -0.76958500      -0.67121800
H       -1.74891100       0.43652400       0.60460000
H       -0.70488200      -1.59163500       1.43401300
H        0.50787900      -0.32887700       1.35356200
H        1.38661300      -1.27072600      -0.79404600
H        0.13183800      -2.51572300      -0.76725200
H        2.15428200      -2.21161100       1.36007400
H        2.17729700      -3.35156400       0.16638400
