20
Properties=species:S:1:pos:R:3 pbc="F F F"
C       -1.80829600      -0.26721900      -1.74266900
C       -1.25286100      -0.09908000      -0.32673300
N       -0.59126100      -1.34206200       0.16041300
C        0.75958600      -1.02613300       0.64980400
C        0.76711000       0.49448900       0.88144300
C       -0.19443500       1.01621200      -0.19876100
C        2.15804900       1.12374100       0.84306400
H       -2.53630700      -1.07571000      -1.77983500
H       -1.01665300      -0.49689500      -2.45407300
H       -2.30359600       0.64277100      -2.07568300
H       -2.10701200       0.14131300       0.34465400
H       -0.56715700      -2.06060900      -0.56371900
H        1.53199100      -1.31050000      -0.09016800
H        0.99318000      -1.58518900       1.57244400
H        0.32078600       0.69695800       1.86799700
H        0.33943600       1.15091700      -1.14563000
H       -0.63452300       1.98304400       0.06068200
H        2.64260000       0.95241700      -0.11687400
H        2.79686500       0.70460300       1.61859600
H        2.10430500       2.19925900       1.00183900
