20
Properties=species:S:1:pos:R:3 pbc="F F F"
C        0.72047100      -2.47723900      -1.28666400
C        0.64662500      -1.70659000       0.02605400
C       -0.45919700      -0.64270800       0.03030000
C       -0.54622000       0.27502000       1.26978800
C       -0.62853900       1.50263000       0.31755800
C       -0.26527600       0.59555200      -0.87129000
N        0.26994900       2.63372800       0.55741200
H        1.51121100      -3.22420500      -1.25496300
H        0.92462600      -1.80942200      -2.12114500
H       -0.21704200      -2.98989500      -1.49360500
H        1.61349500      -1.23119600       0.22447700
H        0.47337100      -2.40694300       0.85110600
H       -1.42679700      -1.12579600      -0.16870400
H        0.36387400       0.26391300       1.87451700
H       -1.40021700       0.10979700       1.93257000
H       -1.66056500       1.88527600       0.24448900
H        0.76882300       0.72454300      -1.19805300
H       -0.91246700       0.66170200      -1.75006400
H        1.23527700       2.31896600       0.61794800
H        0.02958200       3.10717200       1.42506800
