16
Properties=species:S:1:pos:R:3 pbc="F F F"
C       -3.87180500       0.15732100      -0.31211400
C       -2.41611500       0.15530100      -0.28889900
C       -1.20260800       0.13866200      -0.23355200
C        0.22951400       0.15801000      -0.24008300
C        0.99162000      -0.31360300       0.76412900
C        2.49474300      -0.29244300       0.78133100
N        3.08230900       0.12809100      -0.48903100
H       -4.24940300       0.78393600      -1.12241000
H       -4.27506300       0.53975600       0.62793600
H       -4.25992000      -0.85317700      -0.45779600
H        0.70073000       0.59460700      -1.12215700
H        0.51347600      -0.73708700       1.64627100
H        2.86136300      -1.29576100       1.09813800
H        2.83848900       0.39797200       1.57073000
H        2.84768600      -0.52842900      -1.22946900
H        4.09439200       0.18206100      -0.41289900
