17
Properties=species:S:1:pos:R:3 pbc="F F F"
C       -1.78791900       0.12644200      -0.62168800
C       -0.24455800       0.08147500      -0.53381600
C        0.35913900       0.25465900      -1.94257300
C        0.24950300      -1.21206100       0.17383000
N        0.61512000      -0.76584100       1.53340000
N        0.75929600       0.63000700       1.54525000
C        0.27408700       1.13400100       0.45406900
H       -2.16330000      -0.66366100      -1.27077800
H       -2.12424600       1.07989200      -1.02509200
H       -2.23522100      -0.00136800       0.36125300
H        0.02550800      -0.53957300      -2.60881100
H        1.44657200       0.23111000      -1.90959300
H        0.05688700       1.20462900      -2.37962700
H        1.12046700      -1.65263400      -0.34444000
H       -0.52279900      -1.99645900       0.21295900
H        1.43649900      -1.23079300       1.93327800
H        0.23720700       2.21259800       0.30136400
