16
Properties=species:S:1:pos:R:3 pbc="F F F"
C       -0.81061000      -1.30615100       2.30422100
C       -1.10082900      -1.09081700       1.15143300
C       -1.47110100      -0.84314900      -0.24279700
C       -0.78849300       0.39616100      -0.84587800
C        0.72702000       0.26384700      -0.91588700
C        1.61067200       0.80316700       0.15521700
N        1.49283200       1.49445500      -1.12930400
H       -0.55309800      -1.49130600       3.31786900
H       -2.56133900      -0.72732800      -0.30209300
H       -1.22161500      -1.73208800      -0.83819500
H       -1.05076300       1.28311400      -0.26324200
H       -1.19053400       0.55374100      -1.85435500
H        1.08691900      -0.62489100      -1.45208800
H        2.55479600       0.29619500       0.36531000
H        1.17185000       1.32546100       1.00567800
H        2.31400400       1.31756200      -1.71160900
