16
Properties=species:S:1:pos:R:3 pbc="F F F"
C       -1.14643500       0.24018800       1.54151900
C        0.36488200       0.16760200       1.49562400
C        1.16920500       0.94166700       0.50213500
N        1.08009700      -0.51788200       0.40549600
C        0.32526600      -1.13627800      -0.70375900
C       -0.49325000      -0.23980700      -1.53771600
C       -1.14815700       0.44497700      -2.28941600
H       -1.46729400       0.97766800       2.27680400
H       -1.57389900      -0.71932300       1.83359800
H       -1.56778800       0.51928900       0.57970500
H        0.82765900      -0.01008300       2.47651600
H        2.15261500       1.32837200       0.78097600
H        0.64223700       1.52799300      -0.25226400
H       -0.31824700      -1.93041800      -0.29064100
H        1.04690700      -1.64410700      -1.36943400
H       -1.73193200       1.06569300      -2.92405900
