20
Properties=species:S:1:pos:R:3 pbc="F F F"
C       -1.08208500      -2.27317800      -0.53319100
C       -1.40509300      -0.78537200      -0.63253700
C       -0.70097600       0.04311200       0.43606900
C       -0.54522600       1.53761800       0.25604600
C        0.67218500       0.66111700       0.22803500
C        1.63094600       0.69604100       1.40825100
N        1.36456000       0.51038900      -1.05149300
H       -1.61560400      -2.83789600      -1.29517800
H       -1.36733700      -2.66987400       0.43905800
H       -0.01723400      -2.45442200      -0.66529900
H       -2.48984000      -0.64760400      -0.54370100
H       -1.13398300      -0.41763700      -1.62789600
H       -0.92434100      -0.27416600       1.45616100
H       -0.71468400       2.17123000       1.12138000
H       -0.88515100       1.96145200      -0.68362200
H        1.09430000       0.81330000       2.34688800
H        2.33492000       1.52191700       1.31420400
H        2.21305700      -0.22404000       1.46537500
H        0.71984100       0.60911400      -1.83060600
H        1.81562300      -0.40012700      -1.11235500
