14
Properties=species:S:1:pos:R:3 pbc="F F F"
C       -1.28243600      -1.19405300       1.31454400
C       -0.43687400      -0.46581300       0.55730600
C        0.86993800      -0.10149800       1.05007800
C        1.97291000       0.21727800       1.43842800
C       -0.80495400      -0.00736200      -0.81923300
C       -0.33176700       1.31686000      -1.33584500
N        0.24131000       0.08304300      -1.84932400
H       -1.00856700      -1.52366200       2.30791500
H       -2.26148100      -1.46803800       0.94026500
H        2.93325000       0.48319100       1.80877900
H       -1.76650000      -0.38372800      -1.18435800
H        0.29526700       1.93540800      -0.69099400
H       -0.96431000       1.86827500      -2.03379200
H        1.16227100      -0.08522700      -1.43420800
