15
Properties=species:S:1:pos:R:3 pbc="F F F"
C       -1.50080600       2.30768800      -0.52432100
C       -0.95454400       1.11252600      -0.75109700
C       -0.24632700       0.28803100       0.30180700
C        1.30564800       0.22061300       0.10414200
N        1.66984000      -1.19718300       0.23941600
C        0.56587600      -1.87482000       0.33722800
N       -0.61490200      -1.13969100       0.24336600
H       -1.97374900       2.87099200      -1.31939100
H       -1.48945000       2.75702100       0.46275600
H       -0.98087900       0.69145100      -1.75621200
H       -0.49029700       0.70130300       1.30405800
H        1.84451700       0.83513200       0.84142600
H        1.60606300       0.59119900      -0.88942000
H        0.52792100      -2.96261600       0.43370900
H       -1.44777200      -1.45059700       0.73704700
