16
Properties=species:S:1:pos:R:3 pbc="F F F"
C       -2.85259200      -1.19449700       0.67524700
C       -1.45699300      -0.78382300       0.76515700
C       -0.29648300      -0.44904200       0.83589100
C        1.10673200      -0.03966700       0.95214600
C        1.66379500       0.64522300      -0.29624300
C        1.19276100       0.29008700      -1.66353500
N        0.82116300       1.56929400      -1.05661000
H       -3.02892500      -1.77500000      -0.23215700
H       -3.51336500      -0.32594000       0.65592000
H       -3.13000600      -1.81188500       1.53143800
H        1.72112800      -0.92113000       1.18942100
H        1.20961500       0.63720900       1.81320100
H        2.70337700       0.97789700      -0.18512000
H        0.40687200      -0.45951600      -1.76744800
H        1.88231300       0.35575900      -2.50711000
H       -0.14247000       1.52786700      -0.71385300
