14
Properties=species:S:1:pos:R:3 pbc="F F F"
C       -1.44337000      -1.32030600       0.05921100
C       -1.71536500      -0.07283200      -0.34628800
C       -0.84375100       0.81286400      -1.12354700
C        0.50105000       0.86773600      -1.14969700
C        1.47390200       0.02491800      -0.35528900
C        1.17181300      -0.05408900       1.07620500
N        0.98872000      -0.11071200       2.21088900
H       -2.17859900      -1.89258000       0.61155600
H       -0.50355700      -1.81137800      -0.15965300
H       -2.70274600       0.33764100      -0.13055800
H       -1.37400100       1.54139900      -1.73863100
H        0.96371900       1.60633600      -1.80350700
H        2.48258800       0.44164200      -0.46119300
H        1.52587900      -0.99781600      -0.75781200
