18
Properties=species:S:1:pos:R:3 pbc="F F F"
C       -1.61370400      -0.18811900       0.40871100
C       -0.13063500      -0.06371900       0.03104200
C        0.59496400       1.12204400       0.74632700
C        1.30307700       0.07260700       1.60750800
N        0.74355500      -1.02575100       0.79139100
C        0.12323400      -0.12503000      -1.46669700
C       -0.76162000       0.14105200      -2.42797500
H       -1.73513300      -0.18467500       1.49042300
H       -2.03684400      -1.11426300       0.02417000
H       -2.19409100       0.64009500       0.00650200
H       -0.05769800       1.81741600       1.27965600
H        1.26040000       1.69725900       0.09888200
H        0.97218800       0.05499300       2.65861900
H        2.40436700       0.10665100       1.60405100
H        0.21405000      -1.71164700       1.33518400
H        1.14503900      -0.38059300      -1.74796800
H       -1.79023000       0.40352300      -2.20959500
H       -0.47882800       0.09849600      -3.47315800
