19
Properties=species:S:1:pos:R:3 pbc="F F F"
N       -0.22928000       2.24577300       0.69478800
C       -0.82401700       1.19824500      -0.13892800
C        0.10105200      -0.03314800      -0.26025300
C        1.36705100       0.28533100      -1.06832200
C        0.37503100      -0.77825400       1.07377300
N       -0.16494400      -2.02931900       0.50034700
C       -0.61772200      -1.33107500      -0.72002700
H       -0.85754800       3.04144200       0.77042900
H        0.65085100       2.56664700       0.29955100
H       -1.07294000       1.56979400      -1.15717100
H       -1.77799200       0.89561500       0.31810300
H        1.96466400       1.05497800      -0.58115700
H        1.11395900       0.64043500      -2.06717000
H        1.98996700      -0.60023800      -1.17430400
H       -0.20355400      -0.39571200       1.92890400
H        1.43000700      -0.85489100       1.38329900
H       -0.92008600      -2.44876100       1.04648300
H       -1.71469300      -1.24026900      -0.79757400
H       -0.25144600      -1.79081100      -1.65279000
