18
Properties=species:S:1:pos:R:3 pbc="F F F"
C       -1.51548300       0.30884200       0.27011500
C       -0.10893400      -0.22452600       0.24728300
C        0.37731600      -1.12889600       1.12181400
C       -0.35307700      -1.76493700       2.26371400
C        0.79993800       0.31845500      -0.81716700
C        0.78612000       1.76163600      -1.22045400
N        0.21234800       0.74767200      -2.09587400
H       -2.19832100      -0.35672400       0.79186200
H       -1.87688700       0.45240300      -0.74668400
H       -1.55596100       1.28090300       0.76704000
H        1.41711400      -1.43878200       1.00681000
H       -1.41275500      -1.52391900       2.26602700
H        0.06452100      -1.44067600       3.21977200
H       -0.25068100      -2.85079000       2.22951100
H        1.77296100      -0.18611600      -0.88693600
H        1.72466000       2.22553600      -1.53335600
H        0.06916800       2.44530200      -0.76384400
H        0.84446000       0.53571500      -2.87090600
