20
Properties=species:S:1:pos:R:3 pbc="F F F"
C       -2.36074400      -0.08558800      -0.95363500
C       -0.83154800      -0.15324100      -0.91920900
C       -0.26362300      -1.45684800      -0.31351400
C        0.98993600      -1.03767900       0.47279200
C        1.11514000       0.48860900       0.27085800
N       -0.25266700       0.91371300      -0.08093900
C        1.65390700       1.24640600       1.48704300
H       -2.77008500      -0.87923300      -1.57563200
H       -2.69600800       0.86639700      -1.36197000
H       -2.78060000      -0.18720300       0.04478700
H       -0.45974300      -0.06307100      -1.96923600
H       -0.03402500      -2.18919100      -1.09272300
H       -0.99461500      -1.92890800       0.34938000
H        1.88669900      -1.56066000       0.12870400
H        0.87709300      -1.27988600       1.53359600
H        1.80940400       0.67370200      -0.58529200
H       -0.26240600       1.81968700      -0.55400800
H        1.02260000       1.08899200       2.35890900
H        1.69075700       2.31653200       1.28983400
H        2.66118500       0.91689200       1.73420600
