17
Properties=species:S:1:pos:R:3 pbc="F F F"
C       -0.54808100       0.96281100       1.81769300
C       -1.21887600       0.82609300       0.46926000
C       -0.63119300       1.43206700      -0.76556700
C       -0.67694800      -0.06723100      -0.62938700
C        0.54174200      -0.92027900      -0.47004300
N        0.45312100      -2.19769600      -0.69695900
N        1.73399300      -0.31973900      -0.05349000
H       -0.84500400       1.89414900       2.29966700
H        0.53549200       0.96044000       1.73345400
H       -0.83478700       0.14520000       2.47753400
H       -2.30891300       0.85051700       0.52395100
H        0.33066600       1.93048600      -0.68438900
H       -1.30371600       1.88904400      -1.48504400
H       -1.44762800      -0.56466100      -1.21637800
H        1.34102400      -2.68548300      -0.55140100
H        2.57593700      -0.87189900      -0.16531900
H        1.84726700       0.67348500      -0.21066300
