16
Properties=species:S:1:pos:R:3 pbc="F F F"
C        0.09217900      -1.67517000      -0.32501900
C       -0.36415200      -0.46749200       0.50435500
C       -1.83308100      -0.43242900       0.61025300
N       -2.97962000      -0.40337200       0.70218400
C        0.16567200       0.87294700      -0.07086200
C        1.66593500       0.96472300      -0.01981300
C        2.43945100       1.25211400      -1.06681700
H        1.17829200      -1.71924100      -0.35737100
H       -0.27450800      -1.60703100      -1.34666200
H       -0.27710300      -2.60276700       0.10641200
H        0.02762500      -0.57956700       1.53004100
H       -0.26280300       1.69450200       0.51754400
H       -0.18726700       1.00195500      -1.09772600
H        2.12314700       0.79647300       0.95594200
H        2.01862200       1.42566800      -2.05038700
H        3.51531100       1.32545200      -0.96565900
