19
Properties=species:S:1:pos:R:3 pbc="F F F"
N       -2.32990600      -0.18663900      -0.90726000
C       -0.86006200      -0.16190100      -0.93274600
C       -0.23556600      -1.42750600      -0.30418100
N        0.91174500      -0.96894500       0.49945200
C        1.11498800       0.48276700       0.29398700
C       -0.27426000       0.99606700      -0.10986500
C        1.70214800       1.15914200       1.53788000
H       -2.68641200      -0.95998900      -1.46354200
H       -2.70887300       0.68009600      -1.28091900
H       -0.48972800      -0.06869300      -1.98312400
H        0.07939200      -2.14979000      -1.07709200
H       -0.97078900      -1.95505800       0.32928200
H        1.75934100      -1.50422900       0.30968500
H        1.81911500       0.65550400      -0.55491200
H       -0.22812100       1.93446500      -0.67037900
H       -0.88900800       1.17463800       0.77677800
H        1.04312000       1.04253300       2.39531100
H        1.84953500       2.22376700       1.36690700
H        2.66606500       0.72443000       1.79621100
