20
Properties=species:S:1:pos:R:3 pbc="F F F"
C        0.90188300       1.62089000      -0.67993900
C        0.36254300       0.18770300      -0.56282100
C       -1.17480400       0.20436400      -0.56416500
C       -2.00869500       0.25597700       0.66991400
N       -1.89435100      -0.98362500      -0.10103900
C        0.94391000      -0.55595800       0.65941400
C        2.42797100      -0.87356500       0.52557400
H        1.98514400       1.62696100      -0.77720100
H        0.64201800       2.21124200       0.19695600
H        0.48556100       2.12083700      -1.55318900
H        0.67868600      -0.36037000      -1.46734700
H       -1.60273300       0.69802400      -1.44857800
H       -2.96694700       0.77937000       0.63472500
H       -1.53929900       0.23691400       1.65407700
H       -2.73549000      -1.14212900      -0.65967300
H        0.38678700      -1.48753300       0.79470700
H        0.78122500       0.03891400       1.56451400
H        2.62211700      -1.47427300      -0.36110900
H        2.78010400      -1.43137700       1.39116300
H        3.02643100       0.03233100       0.45036600
