18
Properties=species:S:1:pos:R:3 pbc="F F F"
C       -1.93098300       0.76631900      -2.38997000
C       -0.91476700       0.84120800      -1.52987600
C       -0.22435600      -0.34771100      -0.92150800
C       -0.17238000      -0.27834500       0.61850000
C        0.67689900      -1.36754100       1.30704600
C        1.63865700      -0.24790800       1.71998300
N        0.72493900       0.77709700       1.16896100
H       -2.38634300       1.65945700      -2.79959800
H       -2.33492000      -0.18787000      -2.70831300
H       -0.53805000       1.81985900      -1.23037000
H        0.80273000      -0.40520200      -1.30779800
H       -0.72612100      -1.27085500      -1.23044100
H       -1.20235100      -0.19210200       1.01548300
H        1.09818700      -2.12828400       0.64462700
H        0.18015700      -1.87297000       2.13883200
H        2.61866900      -0.28264700       1.21771000
H        1.81923400      -0.13921600       2.80132700
H        1.15581800       1.36401700       0.45076500
