15
Properties=species:S:1:pos:R:3 pbc="F F F"
C        0.23114900       0.30541700       2.53760100
C       -0.02012600       0.37494100       1.04667000
C        0.94908400       1.03207500       0.11843100
N        0.85270900      -0.43261400       0.17798200
C        0.23590800      -1.12293700      -0.96648700
C       -0.87608600      -0.40128200      -1.61218700
N       -1.74439500       0.15292400      -2.12620200
H       -0.17493800       1.18236900       3.04051400
H        1.29597500       0.25508000       2.75148900
H       -0.24236400      -0.57361200       2.97381900
H       -1.07648600       0.41854100       0.75433700
H        1.87988700       1.44520500       0.51042700
H        0.56514000       1.52442300      -0.77661300
H       -0.13473600      -2.10578000      -0.63440900
H        1.00975500      -1.31767600      -1.72619600
