17
Properties=species:S:1:pos:R:3 pbc="F F F"
C       -2.14636400      -0.51782700       0.24287800
C       -0.65247300      -0.44999000       0.19867500
N        0.09633800      -1.51132700       0.16476700
N        1.46089200      -1.13862000       0.21149800
C        1.57359600       0.31455700      -0.02812100
C        0.15182600       0.85032100       0.22731600
C       -0.31425200       1.91899900      -0.76432500
H       -2.48777200      -1.54967900       0.26222300
H       -2.59183100      -0.02686000      -0.62503300
H       -2.53849800      -0.01063800       1.12706700
H        2.01540500      -1.71369800      -0.43179400
H        1.90832900       0.52293600      -1.06095500
H        2.32355000       0.76610500       0.64085500
H        0.09416900       1.28394700       1.24194500
H       -0.29927300       1.54421700      -1.78597700
H        0.33055000       2.79544600      -0.72111300
H       -1.32923100       2.24148800      -0.53960800
