22
Properties=species:S:1:pos:R:3 pbc="F F F"
C       -1.16382400       2.25218800      -1.88240900
C       -1.45435500       2.10078500      -0.39392500
C       -0.97759000       0.76824800       0.20139600
C        0.54997900       0.63038000       0.24835400
C        1.03159800      -0.64154500       0.95725000
C        0.71400900      -1.93190500       0.19485200
N        1.24399600      -3.09840600       0.90613400
H       -1.54715600       3.20030700      -2.25404300
H       -1.63110900       1.45371700      -2.45550000
H       -0.09513500       2.22394000      -2.08337700
H       -2.53407600       2.19083200      -0.23173500
H       -0.99254700       2.93000800       0.15295000
H       -1.40837500      -0.05951500      -0.37171600
H       -1.37467700       0.67676800       1.21855200
H        0.96851000       1.50184800       0.76459200
H        0.95452100       0.65573100      -0.76935500
H        0.59336400      -0.69524500       1.95902900
H        2.11649500      -0.57662400       1.10243900
H        1.11839100      -1.85865300      -0.83764000
H       -0.37345700      -2.05269500       0.08994600
H        2.25017400      -3.01778600       1.02837400
H        1.04819600      -3.95269700       0.39143400
