20
Properties=species:S:1:pos:R:3 pbc="F F F"
C        1.27835800       1.67206600      -1.67112300
C        0.86550600       1.00044500      -0.35479400
C       -0.48128100       0.25774300      -0.52127700
C       -1.05166900      -0.26164800       0.79188700
N       -2.20163800      -1.17120600       0.75091200
C       -0.90564500      -1.68960600       1.19280600
C        1.97414300       0.07131700       0.15566800
H        0.50967400       2.36266300      -2.01227400
H        1.43666600       0.93416500      -2.45525400
H        2.20358900       2.23091700      -1.54710500
H        0.71860500       1.79367600       0.39664600
H       -0.36224300      -0.57143200      -1.22713100
H       -1.20276700       0.94750400      -0.97710600
H       -1.10945900       0.48462900       1.59402600
H       -2.39445800      -1.46415000      -0.20972800
H       -0.38806100      -2.37592500       0.51939900
H       -0.84732100      -1.95659300       2.24937400
H        2.15977500      -0.73927200      -0.54630200
H        1.70594500      -0.36884200       1.11363800
H        2.90505100       0.61919900       0.28642200
