20
Properties=species:S:1:pos:R:3 pbc="F F F"
N        2.10150700       0.37389700       1.56239800
C        1.37305000      -0.54648300       0.68237100
C       -0.08977800      -0.14014000       0.56727200
C       -0.55822100       0.78015700      -0.53033900
C       -0.98030800      -0.66688400      -0.53011100
C       -0.47792500      -1.63182800      -1.58387800
C       -1.56458900       1.87293900      -0.23901100
H        3.06250400       0.06728400       1.68799100
H        1.65517800       0.42710800       2.47437200
H        1.43962400      -1.59606300       1.04782900
H        1.85176300      -0.53697700      -0.30723900
H       -0.58294400      -0.00580100       1.53317400
H        0.19809800       1.05079900      -1.26898600
H       -2.01443300      -0.85071200      -0.23063500
H        0.52099300      -1.36953000      -1.92519500
H       -1.13570100      -1.63193200      -2.45293900
H       -0.44365100      -2.65195200      -1.19993000
H       -2.30476300       1.54169800       0.48673400
H       -2.09471500       2.17220300      -1.14326400
H       -1.07587900       2.76003000       0.16348100
