16
Properties=species:S:1:pos:R:3 pbc="F F F"
C       -2.37325500       0.15435900      -0.05765100
C       -0.90278100      -0.08569900      -0.06469500
C       -0.17987600      -1.13551300      -0.49130600
C        1.26620000      -0.65612200      -0.20496800
C        1.20221500       0.78572400      -0.76483000
C        0.21366300       0.88076800       0.42264300
N        1.12159800      -0.05585300       1.16226600
H       -2.91692300      -0.69556300      -0.46532200
H       -2.62885100       1.03686100      -0.64792100
H       -2.73653500       0.33746500       0.95585100
H       -0.51671900      -2.06266600      -0.94174400
H        2.11153900      -1.33794100      -0.38610000
H        0.81500500       0.93453100      -1.77587400
H        2.12119900       1.35854700      -0.61884200
H       -0.06002500       1.83119800       0.90795800
H        0.60312700      -0.67255400       1.80096900
