20
Properties=species:S:1:pos:R:3 pbc="F F F"
C       -1.46306400       0.07912300       2.14252600
C       -1.56673900      -0.56438500       0.76442100
C       -0.95485000       0.26528200      -0.38135800
C        0.57830200       0.17979200      -0.51615600
N        1.36616400       0.87873100       0.49650700
C        1.17849800      -1.07839100      -1.07371300
C        1.15566200       0.17092400      -1.90796400
H       -2.00514000      -0.51014900       2.87963900
H       -1.88711100       1.08132800       2.13875700
H       -0.43113500       0.15641900       2.47729100
H       -2.62659000      -0.72840700       0.54028800
H       -1.10413900      -1.55658100       0.78687000
H       -1.25103800       1.31468200      -0.26685300
H       -1.39831000      -0.07757300      -1.32177100
H        1.28727000       0.42470100       1.40364900
H        1.05846600       1.84412600       0.59196100
H        0.51069400      -1.88484600      -1.36015900
H        2.13937600      -1.40094900      -0.68826300
H        0.47586600       0.19682200      -2.75404200
H        2.10178500       0.67523200      -2.06945500
