16
Properties=species:S:1:pos:R:3 pbc="F F F"
C       -0.47064200       0.68045900       2.36392300
C        0.97805000       0.57317700       1.98228600
C        1.52616700       0.24062700       0.80455200
C        0.91489600      -0.13431100      -0.52121800
C       -0.61489300      -0.18384200      -0.61170900
C       -1.06067500      -0.57152200      -1.95102700
N       -1.41591500      -0.87676900      -3.00196700
H       -0.55940800       0.97789400       3.40552700
H       -0.99681400      -0.26748100       2.24954300
H       -0.99938400       1.42345700       1.76641300
H        1.67687500       0.80138100       2.78673200
H        2.61656700       0.23214300       0.76802400
H        1.31760900      -1.11260100      -0.81586400
H        1.29154800       0.56496500      -1.27988000
H       -1.04998600       0.79310800      -0.37441200
H       -1.02302500      -0.90301100       0.10683900
