20
Properties=species:S:1:pos:R:3 pbc="F F F"
C       -1.04363900       0.91276100      -2.27137200
C       -1.52690000       1.16780200      -0.84007400
N       -0.98644700       0.31087900       0.23593600
C       -0.72020400      -1.10514700      -0.02251400
C        0.40539800      -0.14240800       0.19010200
C        1.18922800      -0.10435400       1.49821800
C        2.41518000      -1.01054300       1.47495300
H       -1.52825700       1.61198300      -2.94970600
H       -1.28596300      -0.09305500      -2.60793600
H        0.03110400       1.05174600      -2.36903200
H       -2.62409400       1.07504600      -0.81525400
H       -1.30560800       2.21274500      -0.57164800
H       -0.90022000      -1.49110800      -1.02830700
H       -1.01373400      -1.78419700       0.78145500
H        0.98902400       0.12834400      -0.70002400
H        0.53189400      -0.39364400       2.32371700
H        1.50631500       0.92547600       1.70261000
H        2.13231000      -2.05045300       1.32318600
H        2.96372800      -0.94651700       2.41223100
H        3.09425100      -0.73118600       0.67126900
