16
Properties=species:S:1:pos:R:3 pbc="F F F"
C       -1.63766800       0.88079700       0.29784600
C       -0.10018000       0.91405700       0.26258400
C        0.45100900      -0.43002400      -0.21312500
C        1.22675700      -0.61622700      -1.29370800
C        0.08578300      -1.56655300       0.60660800
N       -0.21101600      -2.45957100       1.27472200
C        0.40765600       2.10334100      -0.55615400
H       -1.99367300       0.06684500       0.92506700
H       -2.04785800       0.74367600      -0.70024800
H       -2.02837900       1.81474500       0.69593400
H        0.24861800       1.04549400       1.30148900
H        1.51890700       0.20922500      -1.93022900
H        1.58212400      -1.60370400      -1.56161200
H        0.07520100       2.04411800      -1.59042100
H        1.49444500       2.15180600      -0.54958700
H        0.02757700       3.03245100      -0.13775900
