19
Properties=species:S:1:pos:R:3 pbc="F F F"
C       -2.05617000       0.04244900      -0.38180500
C       -0.50587500       0.03150800      -0.39313600
N       -0.00052500       0.14252000      -1.78461300
C        0.09410400       1.17367900       0.46001700
N        1.39858800       0.66838700       0.88837400
C        1.33434300      -0.79494800       1.02478700
C        0.07812700      -1.24847400       0.26563800
H       -2.44097600       0.96285900      -0.81818300
H       -2.44717800      -0.03655500       0.63074000
H       -2.45451200      -0.78951400      -0.95982300
H       -0.30481300       1.01833300      -2.20334100
H       -0.35516200      -0.62353300      -2.35246900
H       -0.57144100       1.40061000       1.31994600
H        0.19887400       2.10980600      -0.11140100
H        1.73641200       1.12424300       1.73641700
H        1.28392100      -1.10212100       2.08706100
H        2.24799100      -1.26339800       0.61802300
H       -0.64927900      -1.68853100       0.95529000
H        0.30255200      -2.01383000      -0.48159100
