18
Properties=species:S:1:pos:R:3 pbc="F F F"
C       -0.57345100      -2.03520300      -2.06139800
C       -1.06244900      -0.94482400      -1.46947600
C       -0.24066500       0.24277600      -1.05526700
C       -0.39433400       0.57439100       0.44297200
C        0.33531700      -0.35860400       1.43088900
C        1.25478500       0.82514700       1.75042800
N        0.43818800       1.72102400       0.90111500
H       -1.21837300      -2.85917000      -2.34130200
H        0.48292900      -2.13249600      -2.28357500
H       -2.13115100      -0.88458300      -1.25903500
H       -0.56202800       1.12040400      -1.63377900
H        0.81361000       0.07532800      -1.29814700
H       -1.46870100       0.72461300       0.67112800
H        0.82379600      -1.22794600       0.98467200
H       -0.27737800      -0.69964600       2.26901400
H        2.29123400       0.70484100       1.39638400
H        1.29465700       1.13782200       2.80613800
H        0.96887000       2.17156300       0.15181100
