16
Properties=species:S:1:pos:R:3 pbc="F F F"
C        0.36752200      -0.01719500       1.98358500
C       -0.69843300      -0.82359700       1.25473800
C       -1.22147600      -0.21820700      -0.04757000
C       -0.99709100       1.20411300      -0.44886900
C       -0.33279600       0.09971200      -1.23010500
C        1.10391300      -0.07596400      -1.17109400
N        2.24725600      -0.22620300      -1.17537800
H        0.68557300      -0.54596700       2.87945900
H       -0.01379900       0.95471100       2.29035000
H        1.24328000       0.14236900       1.36010900
H       -1.55430200      -0.96620500       1.92475900
H       -0.31378300      -1.82920300       1.04699500
H       -2.19055700      -0.62791900      -0.34121000
H       -0.36294600       1.82283400       0.17603400
H       -1.80968200       1.73620600      -0.93476700
H       -0.74441900      -0.11657600      -2.21820500
