18
Properties=species:S:1:pos:R:3 pbc="F F F"
C       -1.44823600      -1.38107400      -1.01086600
C       -0.08796800      -0.92396300      -0.46823700
N       -0.09489900      -0.82500300       1.01082600
C        0.88177000       0.18988500       1.43406800
C        0.96086900       1.15415700       0.26201600
C        0.35210200       0.46869100      -0.92379500
C       -0.35051700       1.63219400      -0.28934600
H       -1.71629500      -2.35748100      -0.61126600
H       -1.42637000      -1.45682100      -2.09615700
H       -2.23398900      -0.68063100      -0.73718800
H        0.68072100      -1.66051700      -0.80889500
H        0.06402900      -1.72931200       1.45725300
H        1.88277200      -0.24774300       1.63607700
H        0.56159700       0.67313100       2.37481900
H        1.83696400       1.79490400       0.16282100
H        0.76551200       0.58796800      -1.92535700
H       -1.25199800       1.44099300       0.28394600
H       -0.34677100       2.57119200      -0.83487400
