18
Properties=species:S:1:pos:R:3 pbc="F F F"
C        0.11917600       0.61043900      -2.83780000
C       -0.47993000       0.49085400      -1.65302600
C        0.23909100       0.15197800      -0.36481700
C       -0.05732000      -1.27350200       0.14815100
C        0.17071000      -1.18773000       1.66139000
C        0.06673600       0.30593000       2.01611800
N       -0.20695700       1.00767900       0.75313800
H       -0.44271400       0.83838100      -3.73557700
H        1.19093300       0.48276300      -2.94473000
H       -1.55941400       0.62604400      -1.58149000
H        1.33811800       0.25010300      -0.53038300
H        0.57418200      -2.02504500      -0.33274000
H       -1.09642800      -1.54133600      -0.06677700
H        1.15848900      -1.57720300       1.92736200
H       -0.55627700      -1.79137300       2.21212100
H        1.00353100       0.66142700       2.48706200
H       -0.73456400       0.50070800       2.74998100
H        0.22206100       1.93396400       0.72311100
