20
Properties=species:S:1:pos:R:3 pbc="F F F"
C        2.26910300      -1.82979500      -0.45315400
C        0.80438100      -1.92117100      -0.86369300
C       -0.10271600      -0.89118400      -0.17431800
C        0.15316600       0.54727600      -0.63763500
C       -0.67847500       1.62480600       0.05486200
C       -1.99787300       1.36849000       0.69770200
N       -0.81557700       1.65368600       1.51419700
H        2.85380800      -2.60374700      -0.94577900
H        2.38170800      -1.95751500       0.62148300
H        2.69905200      -0.86705200      -0.72087600
H        0.43279800      -2.92470400      -0.62950600
H        0.72204700      -1.80969300      -1.95020700
H        0.02844800      -0.96272500       0.91113700
H       -1.14579600      -1.15741600      -0.37731800
H       -0.02740900       0.61031400      -1.71814100
H        1.21401300       0.78997900      -0.50161200
H       -0.53091000       2.62149700      -0.38159800
H       -2.39350100       0.35189700       0.72689200
H       -2.75996700       2.14980200       0.69462800
H       -0.45076300       0.79302800       1.92893200
