17
Properties=species:S:1:pos:R:3 pbc="F F F"
C       -2.01850300       0.01347600       1.31482000
C       -0.57473500      -0.01689400       0.80563000
C       -0.24691000       1.19919500      -0.07387600
N        1.15818200       1.14738600      -0.48144000
N        1.62465900      -0.03353900      -1.05071600
C        0.99674400      -1.14349200      -0.81118200
C       -0.26728200      -1.29315200       0.00715200
H       -2.20989200       0.91504900       1.89440600
H       -2.22435800      -0.84435900       1.95204000
H       -2.72740500      -0.00852000       0.48858200
H        0.09884400       0.01255600       1.67621000
H       -0.41461800       2.13646700       0.47876300
H       -0.92490400       1.22244200      -0.95201900
H        1.44505100       1.95669300      -1.04272000
H        1.42350400      -2.05419200      -1.24986600
H       -0.17344100      -2.15205200       0.68335100
H       -1.10855400      -1.53582300      -0.65892100
