20
Properties=species:S:1:pos:R:3 pbc="F F F"
C       -2.09359200       1.02449400      -1.21776600
C       -0.57435900       0.89697700      -1.15533600
C       -0.07603300       0.08231700       0.05411500
N       -0.36159200       0.66405200       1.36377700
C       -0.10480700      -1.42048900      -0.03245000
C        1.21324200      -0.68968800      -0.09727900
C        2.20259700      -0.80602000       1.04190300
H       -2.39783900       1.59651000      -2.09189200
H       -2.48339600       1.53061200      -0.33640400
H       -2.56559700       0.04600300      -1.27612100
H       -0.13105700       1.89974300      -1.12374100
H       -0.21392500       0.42941600      -2.07701500
H       -1.36576600       0.73264000       1.51602600
H        0.03593500       1.59833800       1.43732900
H       -0.47712700      -1.87936400      -0.94357500
H       -0.32251500      -1.97105800       0.87595200
H        1.67288300      -0.65157600      -1.08738400
H        1.68961600      -0.79827100       1.99991500
H        2.91048100       0.02291600       1.03096400
H        2.77716600      -1.72981900       0.97039000
