18
Properties=species:S:1:pos:R:3 pbc="F F F"
C       -2.15934800      -1.65688800       0.64726800
C       -0.67401700      -1.46047300       0.66138700
C       -0.02843900      -0.37532500       0.20195900
C        1.47135500      -0.19942400       0.21465300
N        1.69626100       1.19058400      -0.19792100
C        0.53327700       1.64614200      -0.97028900
C       -0.65181300       0.85722100      -0.40932900
H       -2.55333400      -1.72843000       1.66328600
H       -2.42486700      -2.58648700       0.14070300
H       -2.67109400      -0.83899500       0.14636700
H       -0.09026400      -2.27648000       1.08764600
H        1.95724100      -0.92178000      -0.47635300
H        1.91148700      -0.39594300       1.20931100
H        2.57168700       1.31064700      -0.70890600
H        0.65458000       1.44356500      -2.05456300
H        0.39966700       2.73609300      -0.87347100
H       -1.39326800       0.61809900      -1.17929800
H       -1.18174600       1.43811200       0.35682700
