20
Properties=species:S:1:pos:R:3 pbc="F F F"
C       -2.92680500      -1.29583200      -0.42352200
C       -1.43084500      -1.26359700      -0.39571700
C       -0.68712600      -0.30081000      -0.95473900
C        0.81879700      -0.28353800      -0.94989600
C        1.41094000       1.06036800      -0.49321200
C        1.07403800       1.43039200       0.95603300
N        1.75000500       0.55036600       1.91327000
H       -3.33625700      -1.29988600       0.58817700
H       -3.28777800      -2.20197300      -0.91312000
H       -3.33464100      -0.43765100      -0.95259300
H       -0.93978500      -2.09043000       0.11844500
H       -1.18084000       0.52559900      -1.46758700
H        1.17960800      -0.48658100      -1.96858800
H        1.19994200      -1.09756100      -0.32432800
H        1.04308000       1.85354700      -1.15387700
H        2.49817300       1.03077500      -0.61584900
H       -0.02739600       1.41976200       1.09110600
H        1.39839700       2.46434100       1.14775500
H        1.48191700      -0.41802600       1.75795100
H        1.50154900       0.80361600       2.86594000
