18
Properties=species:S:1:pos:R:3 pbc="F F F"
C       -3.01892000      -0.79566300      -0.67185900
C       -1.53792200      -0.86091500      -0.87064000
C       -0.63735500      -0.31038500      -0.04165700
C        0.82981800      -0.41123100      -0.25891100
C        1.78151200      -0.49360700       0.90195700
N        1.75102900       0.70112700       0.06824400
C        1.20755700       1.92370500       0.66112500
H       -3.50668100      -0.31750300      -1.52324800
H       -3.27803200      -0.23889300       0.22570600
H       -3.44489000      -1.79725500      -0.58689700
H       -1.19147800      -1.40057000      -1.75278000
H       -0.98184900       0.22357000       0.84327100
H        1.11714600      -0.94844500      -1.17235100
H        2.67947600      -1.11063600       0.81886100
H        1.37124300      -0.41312700       1.91241200
H        2.03031100       2.53056700       1.05415000
H        0.50420500       1.74160400       1.48841300
H        0.69520300       2.51137000      -0.10532600
