16
Properties=species:S:1:pos:R:3 pbc="F F F"
C       -2.82048100      -0.17767800      -0.18726500
C       -1.60000700       0.20356000       0.20277700
C       -0.51260700       0.57337800      -0.73522600
N        0.49107500       1.56062200      -0.32050400
C        0.93142400       0.17032500      -0.48537500
C        1.32711500      -0.61357300       0.70959000
C        2.24100900      -1.58907900       0.68898600
H       -3.58649600      -0.43208100       0.53402500
H       -3.08128400      -0.24376300      -1.23721000
H       -1.37240500       0.26522800       1.26735100
H       -0.81037100       0.65626200      -1.78659200
H        0.38039300       1.78162900       0.67383400
H        1.54159300      -0.00015100      -1.37973800
H        0.84070800      -0.35430400       1.65061200
H        2.74716700      -1.86804200      -0.22802300
H        2.50444900      -2.13073400       1.58834800
