20
Properties=species:S:1:pos:R:3 pbc="F F F"
N        0.60409800       2.18977100      -1.57264900
C        1.18370800       1.30083800      -0.55987600
C        0.11040500       0.46237700       0.12035400
C       -0.33775700      -0.84663500      -0.47711500
C        0.47809100      -0.83526100       0.79221600
C       -0.10875200      -1.21239000       2.13627900
C       -1.80037300      -1.23593800      -0.49255100
H        1.32041300       2.78516100      -1.97990200
H       -0.11430700       2.78066000      -1.16217800
H        1.74698000       1.87466500       0.21014600
H        1.91849700       0.64294400      -1.04706900
H       -0.66998900       1.04469100       0.61456800
H        0.20825500      -1.16318900      -1.36826900
H        1.51865800      -1.14559900       0.66899200
H       -1.12124100      -0.83271800       2.25139100
H        0.49295000      -0.80530400       2.94893700
H       -0.14007100      -2.29464700       2.26279100
H       -2.32892400      -0.84151000       0.37227500
H       -1.91971400      -2.31960200      -0.49306200
H       -2.29212000      -0.85189200      -1.38592900
