16
Properties=species:S:1:pos:R:3 pbc="F F F"
C       -0.08359100       0.22603000       3.52439800
C       -0.19881600       0.25218700       2.07217800
C       -0.27201100       0.24190600       0.86325700
C       -0.41813000       0.28243600      -0.58485700
C        0.63264200       0.89971800      -1.46020300
N        0.47962900      -0.55264300      -1.40222000
C       -0.12232900      -1.19174800      -2.57262500
H       -0.65128600       1.04195200       3.97574000
H        0.95860400       0.32862700       3.83203500
H       -0.46532900      -0.71394000       3.92771300
H       -1.45731000       0.36678300      -0.93613100
H        1.54650100       1.29271200      -1.01322700
H        0.30704800       1.40759800      -2.37237700
H        0.65240300      -1.40018600      -3.31638000
H       -0.89967000      -0.57394200      -3.05178700
H       -0.57494800      -2.14427000      -2.28293800
