20
Properties=species:S:1:pos:R:3 pbc="F F F"
C        0.21028100       1.49223800      -1.88769200
N        0.40136400       1.09209100      -0.48901900
C       -0.54203000       0.04069200      -0.08761000
C       -0.29735800      -1.43033000      -0.34005700
C       -0.29955400      -0.87704400       1.06748800
C       -1.42970800      -1.22408400       2.01506300
C        1.80791400       0.87079600      -0.15398900
H        0.81755100       2.37509400      -2.10732100
H       -0.83991700       1.74382200      -2.06084000
H        0.49050300       0.70393400      -2.61003400
H       -1.57928400       0.36849900      -0.22570300
H        0.65842700      -1.73120900      -0.75523600
H       -1.13804000      -2.04520300      -0.64581500
H        0.67768400      -0.82886500       1.54802200
H       -2.38023000      -1.28025500       1.48868600
H       -1.52640200      -0.47546800       2.80136500
H       -1.25726000      -2.18604500       2.49732800
H        2.39458200       1.73282000      -0.48272500
H        2.24144600      -0.02729900      -0.63130000
H        1.93412100       0.77193900       0.92748300
