18
Properties=species:S:1:pos:R:3 pbc="F F F"
C       -2.67631700      -1.54672000      -0.63546200
C       -1.19878100      -1.37575800      -0.80400000
C       -0.55309100      -0.21350100      -0.64769600
C        0.92818000      -0.04172000      -0.84522500
C        1.61806700       0.72402000       0.28236300
C        1.13629300       0.68913500       1.69173600
N        0.92909300       1.87814500       0.86350200
H       -2.89893200      -2.28335400       0.13871200
H       -3.13448100      -1.91114400      -1.55676900
H       -3.15749500      -0.61012900      -0.36350200
H       -0.63727600      -2.27124100      -1.07277700
H       -1.10911700       0.68318300      -0.37779000
H        1.10475900       0.50104600      -1.78690200
H        1.40921600      -1.02003600      -0.96786200
H        2.70158600       0.84154200       0.13973500
H        1.86560900       0.76401000       2.50151000
H        0.23142000       0.13348000       1.93935500
H        1.59494900       2.61287700       1.11148200
