16
Properties=species:S:1:pos:R:3 pbc="F F F"
C       -0.34133900      -0.22353700      -2.22308600
C       -0.35518200      -0.54986300      -0.73687800
C        0.63689800      -1.61034300      -0.21746200
N        1.09180600      -0.68849000       0.84261000
C        0.36038800       0.44648100       0.22171700
C       -0.47848600       1.24139100       1.13153700
C       -1.19070200       1.92025200       1.83371000
H       -0.73280200      -1.05526300      -2.80704700
H        0.66821300      -0.01537300      -2.57470000
H       -0.95542900       0.65027900      -2.43424600
H       -1.38135400      -0.75912800      -0.40889900
H        1.42726700      -1.87340400      -0.93979000
H        0.19968800      -2.54659500       0.16404800
H        2.10529600      -0.55946600       0.88848700
H        1.03967300       1.13402100      -0.32541400
H       -1.80265300       2.49807400       2.48206300
