15
Properties=species:S:1:pos:R:3 pbc="F F F"
C       -1.51755800      -1.44355200       1.51144400
C       -0.44843700      -0.35953700       1.62781300
C        0.05804600       0.13212400       0.29968700
N        0.12817200       1.39766800       0.00276500
N        0.68601700       1.52662700      -1.33356200
C        0.93087600       0.33940900      -1.79108800
C        0.56640100      -0.74195700      -0.81866900
H       -1.85089000      -1.75881500       2.49772400
H       -1.13584400      -2.32025200       0.99114000
H       -2.38461200      -1.08057700       0.96419200
H        0.39606600      -0.75658000       2.20807000
H       -0.84005500       0.48838500       2.19644600
H        1.35495200       0.18496200      -2.78459300
H        1.42179800      -1.36071600      -0.52450300
H       -0.19670700      -1.42539200      -1.20802200
