20
Properties=species:S:1:pos:R:3 pbc="F F F"
C       -2.06065800      -0.27985800      -0.10405200
C       -0.73355200      -0.57734400      -0.81895300
C        0.22551800       0.63450400      -0.77208900
C        1.68301900       0.55869600      -0.44509100
N        0.76507900       1.28769700       0.43130900
C        0.52171900       0.75376200       1.76883500
C       -0.13967500      -1.91683500      -0.36307600
H       -2.48027300       0.66314900      -0.44803300
H       -1.92856700      -0.21460400       0.97301900
H       -2.78708000      -1.06568000      -0.30344800
H       -0.97461900      -0.69906100      -1.89000800
H       -0.04971500       1.37861300      -1.53495100
H        2.40059200       1.17243200      -0.99654700
H        2.08914300      -0.38390400      -0.07015900
H        1.28032200       1.14825400       2.45386300
H        0.55801900      -0.34390700       1.83249500
H       -0.45424900       1.08830800       2.13246100
H        0.09648400      -1.92541200       0.69811100
H        0.76950500      -2.15113400      -0.91343200
H       -0.85333900      -2.71848000      -0.54598300
