17
Properties=species:S:1:pos:R:3 pbc="F F F"
N       -0.77564400       2.25435100      -0.32839000
C       -1.06289600       1.16810100       0.30657600
N       -0.09112600       0.22963000       0.66100300
C       -0.12653100      -1.17276700       0.24604900
C        0.93553400      -0.23001300      -0.26948200
C        2.36302200      -0.29749500       0.23152400
C       -1.24849400      -1.66033100      -0.64748800
H       -1.58160700       2.87523400      -0.43041700
H       -2.07803000       0.94328800       0.71446300
H        0.16583900      -1.87403300       1.03915000
H        0.81721100       0.12907800      -1.29893500
H        2.39965200      -0.63542400       1.26484400
H        2.83709800       0.68159500       0.18012000
H        2.95544800      -0.98494500      -0.37181300
H       -1.48522100      -0.92529000      -1.41379900
H       -2.15444900      -1.85169400      -0.07214500
H       -0.97235100      -2.59064400      -1.14283600
