19
Properties=species:S:1:pos:R:3 pbc="F F F"
C       -2.02015000      -0.99138200      -0.93174500
C       -1.48925600       0.41951300      -0.70472600
C       -0.79583600       0.57239200       0.64266700
N        0.12730200       1.70182400       0.81352200
C        0.66614200       0.33638200       0.86552300
C        1.64375700      -0.07424800      -0.22654600
N        1.80252100      -1.53251400      -0.26587100
H       -2.54260600      -1.06079200      -1.88379800
H       -2.71817100      -1.27829700      -0.14673400
H       -1.20953600      -1.71668800      -0.93813800
H       -2.32009200       1.13361600      -0.75986800
H       -0.80011700       0.68964700      -1.50977500
H       -1.44609600       0.36551800       1.50478000
H        0.04788600       2.10097400       1.75146500
H        0.94521700      -0.01832400       1.86878900
H        2.61596200       0.43564600      -0.05124100
H        1.28976200       0.27125300      -1.20612500
H        2.11514100      -1.88430700       0.63576500
H        2.48595300      -1.79935600      -0.96972400
