20
Properties=species:S:1:pos:R:3 pbc="F F F"
N       -2.56891100      -0.87680000       1.85727800
C       -1.17875400      -1.13907500       1.47810200
C       -0.68637000      -0.10582900       0.46060100
C        0.77636800      -0.34417600       0.05185600
C        1.28153800       0.65781900      -0.96619100
C        2.19395900       1.58531700      -0.64435900
C        0.72044100       0.55510800      -2.35788100
H       -2.89935200      -1.57609200       2.51691400
H       -3.17401500      -0.88964500       1.04015100
H       -1.04911800      -2.16039900       1.05909500
H       -0.55456500      -1.09946700       2.38280100
H       -0.79133500       0.89841500       0.88130200
H       -1.32839900      -0.13623000      -0.42696400
H        0.87024800      -1.35743800      -0.35995000
H        1.40993800      -0.30914800       0.94385500
H        2.59540900       1.65378900       0.35912400
H        2.55405900       2.29648000      -1.37748600
H        0.90001100      -0.43666300      -2.77505400
H        1.16623800       1.29183500      -3.02143600
H       -0.35983300       0.70717900      -2.35607100
