15
Properties=species:S:1:pos:R:3 pbc="F F F"
C       -2.60920000       0.31207200       0.06359200
C       -1.11335800       0.26152500       0.02436800
C       -0.25425600       1.34853300       0.02506800
N        1.04573900       0.86198400      -0.01842100
C        1.01616200      -0.50090100      -0.03665400
C       -0.30883200      -0.92095600      -0.01675800
N        2.21072000      -1.25869000      -0.13221300
H       -2.96517900       1.33982800       0.08027300
H       -3.00347100      -0.19260900       0.94762000
H       -3.04900700      -0.18093000      -0.80514700
H       -0.45499100       2.41085000       0.05452900
H        1.88192200       1.43151000      -0.03206900
H       -0.65581800      -1.94329500      -0.03279000
H        2.99524800      -0.85691700       0.37175400
H        2.07298600      -2.23313600       0.11256800
