16
Properties=species:S:1:pos:R:3 pbc="F F F"
C       -3.29652500      -0.31990700      -0.12494400
C       -1.96623300      -0.29871600       0.05590300
C       -1.03446500       0.28350400      -0.90175400
C        0.30817500       0.34562600      -0.76649200
C        1.09917000      -0.14918500       0.38719300
C        2.22661500       0.67370100       0.94252300
N        2.50829000      -0.50047500       0.13274500
H       -3.95675500      -0.76279300       0.60997200
H       -3.75031900       0.10609000      -1.01227100
H       -1.55035400      -0.73608100       0.96326100
H       -1.47891500       0.70128400      -1.80470900
H        0.88756800       0.81381500      -1.56132600
H        0.57224300      -0.78638400       1.10685800
H        2.43569000       0.61378500       2.01321500
H        2.47086900       1.63162400       0.48123700
H        2.79151800      -1.28815200       0.71997300
