19
Properties=species:S:1:pos:R:3 pbc="F F F"
N        0.78537200      -2.34270600       1.36130200
C       -0.15957700      -1.53730500       0.58048100
C        0.53854800      -0.31804800      -0.00982600
C        0.55469300       0.99542000       0.74475600
C       -0.20728400       0.86192000      -0.56128700
C       -1.72560000       0.91734600      -0.54591100
N        0.35709400       1.48954400      -1.75976400
H        0.31282800      -3.13173200       1.79436300
H        1.21435200      -1.77921300       2.09070400
H       -1.02835600      -1.21596300       1.19254500
H       -0.56702300      -2.16579300      -0.22757300
H        1.47175100      -0.55805600      -0.52144200
H        1.48149400       1.56047200       0.74994400
H       -0.01054600       1.04434500       1.67026800
H       -2.13268900       0.50435500       0.37351200
H       -2.14525100       0.36186200      -1.38370600
H       -2.07232300       1.94729900      -0.63174900
H        1.37083000       1.41418200      -1.76328500
H        0.10298700       2.47437400      -1.80362100
