17
Properties=species:S:1:pos:R:3 pbc="F F F"
C       -1.78172700       0.20848000       1.49908800
C       -0.26780000       0.20303100       1.24024400
C        0.24237500       1.43652500       0.43862500
N        0.65415800       0.92918900      -0.87891400
C        0.54387600      -0.36967700      -0.85503600
N        0.13851900      -0.91614300       0.36979400
C        0.87508500      -1.26483000      -2.00519200
H       -2.06066600       1.05058600       2.12902400
H       -2.09586400      -0.70478900       2.00296300
H       -2.33848200       0.28741400       0.56764900
H        0.24813300       0.12607300       2.21968600
H        1.09773200       1.91673700       0.94196600
H       -0.52726800       2.21676700       0.32780500
H       -0.43213100      -1.75861500       0.37056100
H        1.10350000      -0.68187700      -2.89206100
H        0.04620000      -1.93533000      -2.23522200
H        1.73926500      -1.88945700      -1.77490600
