18
Properties=species:S:1:pos:R:3 pbc="F F F"
C       -0.41785500      -0.16243900       2.45860000
C        0.80484700       0.18376200       1.63243400
C        0.80055700       1.31678000       0.65672300
N        0.86986000      -0.06878100       0.18450600
C       -0.31973900      -0.61218200      -0.49619400
C       -0.18725500      -0.48387600      -1.99214300
C       -1.19956100      -0.21380900      -2.81674500
H       -0.34003200       0.28117900       3.45065500
H       -0.51209800      -1.24072500       2.58882000
H       -1.33556100       0.20366000       2.00459300
H        1.75405800      -0.03048000       2.14233400
H        1.70231900       1.91381800       0.50351900
H       -0.13764500       1.85296200       0.49363600
H       -1.26156000      -0.13993000      -0.15809900
H       -0.39650500      -1.68366200      -0.23775900
H        0.80939600      -0.64792800      -2.40204300
H       -2.20326500      -0.03973600      -2.44458800
H       -1.05408600      -0.15710400      -3.88865200
