18
Properties=species:S:1:pos:R:3 pbc="F F F"
C       -0.23177600       0.31454900       2.04914200
C       -0.70209800       0.26576500       0.59673300
C       -0.30561800       1.51981700      -0.22659200
C        0.10760400       0.97720800      -1.56531400
C        0.16673700      -0.35742000      -1.58096200
C       -0.18063000      -0.96211100      -0.22616600
N        0.97092400      -1.64532700       0.40076000
H       -0.69162100       1.15206500       2.57182100
H        0.84750900       0.43455500       2.11630100
H       -0.50108700      -0.59847500       2.57542300
H       -1.80202300       0.20594600       0.60578100
H        0.52190300       2.07143400       0.24005800
H       -1.13369900       2.23386400      -0.31030200
H        0.34380100       1.62292500      -2.40738800
H        0.47262200      -0.95397200      -2.43646900
H       -0.98292400      -1.71822800      -0.32654800
H        1.77234600      -1.01933600       0.43444900
H        1.23139300      -2.46033400      -0.14949700
