19
Properties=species:S:1:pos:R:3 pbc="F F F"
N        1.92044700      -1.62779300       0.43827800
C        0.76529100      -1.18893400      -0.35444600
C       -0.30677400      -0.59196400       0.54531900
C       -0.35070400       0.89109800       0.86693800
C       -1.41650800       0.28603600       0.00022800
C       -1.55729200       0.59665400      -1.47528600
N        0.61789200       1.82875900       0.32403000
H        2.60114900      -2.10104200      -0.15004800
H        1.62789900      -2.26698800       1.17295200
H        0.33437200      -2.02943200      -0.94299400
H        1.10837100      -0.44634000      -1.08937800
H       -0.60827100      -1.25691800       1.35903800
H       -0.65630600       1.14472900       1.88962300
H       -2.38204800       0.14733400       0.49330600
H       -0.59360900       0.70165900      -1.96866900
H       -2.10903800       1.52480400      -1.62339900
H       -2.10472200      -0.19541400      -1.98634100
H        0.66436700       1.76806300      -0.68885200
H        1.54538600       1.64544100       0.70208800
