15
Properties=species:S:1:pos:R:3 pbc="F F F"
C       -1.42928900       0.65071100       0.08092300
N       -1.52475600      -0.64163600       0.11042700
C       -0.37559700      -1.46427600      -0.27154500
C        0.97020800      -0.74288400      -0.29533200
C        0.97905800       0.74591300      -0.31991300
N       -0.31465100       1.40002200      -0.28752600
C        1.45497600       0.01476900       0.91390600
H       -2.31493300       1.25785900       0.33296900
H       -0.56558500      -1.88344900      -1.27735000
H       -0.32826500      -2.33892600       0.40304900
H        1.74734700      -1.24488400      -0.87643500
H        1.72113700       1.26984000      -0.93253500
H       -0.30921100       2.36850200       0.02713100
H        0.80973000       0.03421300       1.78558300
H        2.51949200       0.00274100       1.12904500
