19
Properties=species:S:1:pos:R:3 pbc="F F F"
C       -1.02089100      -0.52708700      -1.58677800
C       -1.09470600      -0.62399900      -0.06470600
N       -0.29536600      -1.73512800       0.52625600
C        0.60833400      -0.77932700       1.20076400
C       -0.29647400       0.40037300       0.79714600
C        0.32552200       1.67088000       0.15820300
N        1.53310200       1.47535600      -0.64785900
H       -1.56926100      -1.34988100      -2.04296500
H        0.00449200      -0.57753700      -1.94836600
H       -1.46034200       0.40288000      -1.94284500
H       -2.16220300      -0.68837700       0.22920900
H        0.17251900      -2.31718200      -0.17224500
H        1.61865400      -0.74949600       0.75962800
H        0.72017400      -0.95969200       2.28235800
H       -0.91491600       0.72905200       1.64535600
H       -0.43617700       2.16347000      -0.46426400
H        0.57162700       2.37898800       0.96262500
H        1.36564100       0.82222400      -1.40804300
H        2.29492600       1.11892000      -0.07700200
