18
Properties=species:S:1:pos:R:3 pbc="F F F"
C       -1.60360800       0.06064100      -1.86113200
C       -1.53502600       0.05669900      -0.33652700
C       -0.69977800      -1.06637000       0.31080000
C        0.25839500       0.03720300       0.82706500
N       -0.63207900       1.09206200       0.24906800
C        1.64990800       0.01209000       0.25104100
C        2.76076000      -0.11400200       0.97857700
H       -2.20505800      -0.77051600      -2.22477600
H       -0.61228400      -0.02536100      -2.30272200
H       -2.05275400       0.98350200      -2.22402600
H       -2.56111800       0.13590100       0.07356300
H       -0.25300100      -1.77650200      -0.38891600
H       -1.20903800      -1.62840600       1.09774700
H        0.30887700       0.09991500       1.93060300
H       -0.16215400       1.65535900      -0.46495700
H        1.72685000       0.09999500      -0.83388600
H        2.71993400      -0.20283800       2.05851300
H        3.74039000      -0.13305900       0.51643200
