18
Properties=species:S:1:pos:R:3 pbc="F F F"
C       -2.90560700       0.66097500      -0.87805200
C       -1.41397600       0.66952200      -0.94059400
C       -0.61647200       0.24757900       0.05817600
C        0.85751700       0.24064000       0.04174500
C        1.59341900       0.88637400      -0.88316800
C        1.53010000      -0.50594800       1.18060200
N        1.18548400      -1.93115200       1.17188500
H       -3.30630700       1.66718700      -1.01665400
H       -3.26648900       0.27873200       0.07437300
H       -3.32557900       0.04487000      -1.67572700
H       -0.97285700       1.04192000      -1.86499900
H       -1.08378700      -0.13704900       0.96605600
H        1.13437500       1.45349000      -1.68418000
H        2.67572200       0.85248800      -0.85666000
H        1.23489200      -0.02356400       2.13989600
H        2.62174200      -0.40247900       1.10657200
H        0.17769900      -2.06001800       1.13121000
H        1.54231300      -2.39236400       2.00466400
