17
Properties=species:S:1:pos:R:3 pbc="F F F"
C        1.12872200       0.05215900       1.30854000
C        0.60607500      -0.00496400      -0.11767500
C        1.42154400      -0.69559300      -1.16891400
N        1.37188800       0.76805800      -1.11376200
C       -0.90567100      -0.01461100      -0.29413300
C       -1.83863900       0.67591600       0.64470000
N       -1.70767000      -0.77993600       0.66727100
H        2.21161800      -0.04246000       1.32393800
H        0.70219100      -0.75173700       1.90586100
H        0.86819800       0.99600500       1.78715300
H        0.90998000      -1.17629600      -2.00588000
H        2.38608700      -1.13438200      -0.91014100
H        0.75514300       1.13217100      -1.84461300
H       -1.23255600      -0.07642500      -1.34197900
H       -2.76870600       1.08887800       0.24792100
H       -1.44874000       1.19332200       1.52172800
H       -2.50492600      -1.22336800       0.20634100
