19
Properties=species:S:1:pos:R:3 pbc="F F F"
N       -0.99432200       0.07533900      -1.62030800
C       -1.02088700      -0.01991700      -0.16123600
C       -0.14630300      -1.09859400       0.56641600
C        0.88035100      -1.85574400      -0.27258800
N        0.43462000      -0.02811200       1.43223000
C       -0.23012500       1.05006500       0.63863900
C        0.73277000       1.94427600      -0.13803900
H       -1.47578400      -0.71602000      -2.04041400
H       -0.04002100       0.09615300      -1.97056800
H       -2.07520600      -0.07354900       0.15875000
H       -0.73620100      -1.82821400       1.15663100
H        1.49799100      -1.17673600      -0.85871800
H        0.39135200      -2.54452300      -0.95993000
H        1.54230400      -2.43688200       0.36752500
H        1.45587600       0.01230800       1.38458200
H       -0.87366100       1.68882400       1.27616700
H        1.42894500       1.36007400      -0.73795300
H        1.31819100       2.55687400       0.54598700
H        0.18929100       2.61057900      -0.80466400
