20
Properties=species:S:1:pos:R:3 pbc="F F F"
C       -0.44659800       2.73304400      -1.13973600
C       -0.71639600       1.25298900      -0.88783900
C       -0.31961500       0.82198100       0.51995900
C        1.08702200       0.34962700       0.80890800
C       -0.08018200      -0.60771500       0.89097200
N       -0.25748000      -1.67814100      -0.08585800
C        0.55778700      -2.86189300       0.18371700
H       -0.74554200       3.01618900      -2.14709500
H        0.61104500       2.96114600      -1.02623600
H       -0.99794300       3.35614000      -0.43814900
H       -0.17319100       0.65768300      -1.62944700
H       -1.78219600       1.04798100      -1.04723600
H       -0.76783800       1.43799900       1.30276200
H        1.55982700       0.68353700       1.72771700
H        1.75957300       0.25380200      -0.03690700
H       -0.38903700      -0.90690500       1.89864600
H       -0.06876500      -1.33155400      -1.02823800
H        0.30785500      -3.27452200       1.16488800
H        1.64292500      -2.65658600       0.17465900
H        0.35353500      -3.62612200      -0.57023900
