17
Properties=species:S:1:pos:R:3 pbc="F F F"
N       -1.22511800       1.36458900      -0.97306100
C       -2.41434900       0.53508000      -0.76989600
C       -1.07027600      -0.09256700      -0.90887100
C       -0.37260100      -0.71699400       0.29352100
C        1.14714700      -0.69438900       0.16398800
N        1.92718800      -0.86236800       1.39215000
C        1.96428400       0.42863800       0.70363700
H       -0.93605300       1.79536000      -0.09157000
H       -3.11533900       0.51234200      -1.60542600
H       -2.88055800       0.56506800       0.21691400
H       -0.82263900      -0.55153300      -1.87434600
H       -0.70900800      -1.75665200       0.40752900
H       -0.66751000      -0.19356900       1.20785800
H        1.53993700      -1.20133400      -0.72785400
H        2.78214400      -1.39300500       1.21306500
H        2.89175300       0.69888500       0.19486700
H        1.47755700       1.25028600       1.23105600
