20
Properties=species:S:1:pos:R:3 pbc="F F F"
C        0.87679600      -2.84486300      -0.06530200
C        0.71370000      -1.33050100      -0.01840600
C       -0.75745700      -0.90448400       0.06850800
C       -1.00198200       0.61512000       0.08127700
C       -0.19894600       1.47364700       1.08219700
C        0.47153600       2.12471600      -0.13242300
N       -0.41083400       1.37749400      -1.05561600
H        1.92678600      -3.12007200      -0.14007700
H        0.35744600      -3.26888600      -0.92245100
H        0.47170500      -3.31016600       0.83119900
H        1.17381100      -0.88902900      -0.90931300
H        1.26552700      -0.93459900       0.84047000
H       -1.20518100      -1.33891000       0.96975400
H       -1.30411300      -1.33547700      -0.77843700
H       -2.09716400       0.77996100       0.14922700
H        0.46960500       0.92921200       1.75372200
H       -0.80890300       2.15201100       1.68426000
H        1.54017500       1.88098000      -0.24660900
H        0.36730800       3.21875400      -0.21477200
H        0.09695900       0.79194800      -1.72275900
