20
Properties=species:S:1:pos:R:3 pbc="F F F"
C       -1.51250500      -0.44137500      -1.84347300
C       -1.87104500      -0.98977000      -0.46802700
C       -1.26222700      -0.18925500       0.69315000
C        0.25982300      -0.25777600       0.74201800
C        1.02359400       0.70106700       1.62661700
C        1.10542400       0.80596900       0.12102000
N        2.32105900       0.43113300      -0.58878400
H       -1.96160200      -1.04747800      -2.62784800
H       -0.43593800      -0.43751900      -1.99545500
H       -1.87058600       0.57943100      -1.96288500
H       -1.54441300      -2.03299500      -0.39693400
H       -2.96091200      -1.00156200      -0.35615400
H       -1.67304300      -0.57544500       1.63483600
H       -1.57921200       0.85710100       0.62661900
H        0.66482500      -1.27082800       0.70176300
H        1.88283000       0.31167000       2.16301000
H        0.45525700       1.45186000       2.16662900
H        0.58697100       1.65359000      -0.33709700
H        2.70067800      -0.43624000      -0.21895700
H        3.02934800       1.15732300      -0.50387000
