17
Properties=species:S:1:pos:R:3 pbc="F F F"
C       -0.42052800      -0.18372800      -2.08039600
C       -1.42206700      -0.25377300      -0.93522500
C       -0.79425400      -0.09875400       0.47222500
C       -0.04663900       1.24605900       0.71599700
N        1.37708200       0.90414000       0.86967600
C        1.46695200      -0.39162800       0.83649500
N        0.26504000      -1.09017900       0.73254300
H       -0.92560500      -0.28854300      -3.03853600
H        0.31925300      -0.97868500      -2.00455300
H        0.11029000       0.76541700      -2.08041800
H       -1.95862200      -1.20896800      -0.98067500
H       -2.17881200       0.52733200      -1.06465900
H       -1.61556000      -0.22532300       1.20933400
H       -0.41208000       1.74608100       1.62787500
H       -0.18292400       1.96796200      -0.10513900
H        2.40964900      -0.93642000       0.93386500
H        0.23878000      -1.97563900       0.23280500
