18
Properties=species:S:1:pos:R:3 pbc="F F F"
C       -1.44512500      -0.79513400      -1.16716500
C       -0.13981400      -0.68844100      -0.41560000
C        0.17462700       0.44548400       0.25570300
C       -0.71398600       1.65647000       0.31640000
N       -0.15773000       2.69104400       1.18831500
C        0.75029900      -1.86072900      -0.46090600
C        1.94735800      -1.98490800       0.13185200
H       -2.29663700      -0.60474500      -0.51127000
H       -1.57217400      -1.78136300      -1.60705100
H       -1.49878400      -0.05945100      -1.97186600
H        1.12276800       0.50674400       0.78615900
H       -1.73956700       1.35310400       0.63305000
H       -0.84450700       2.08174000      -0.69462300
H       -0.00580700       2.33011400       2.12642900
H       -0.78235800       3.49079600       1.24465300
H        0.37594000      -2.70397400      -1.04262900
H        2.38324100      -1.18951400       0.72497800
H        2.52184100      -2.89720900       0.03225500
