20
Properties=species:S:1:pos:R:3 pbc="F F F"
C        0.46411800      -2.59477800      -0.41763700
C        1.06877700      -1.22762700      -0.11367500
C        0.08173600      -0.27845000       0.55614500
C        0.26851800       1.20581400       0.48973000
C       -0.89938000       0.56747400      -0.23537500
C       -0.95791100       0.53513800      -1.74824600
N        0.06420900       2.00849200       1.68994100
H        1.19759300      -3.24716500      -0.88741500
H       -0.38697200      -2.50645800      -1.08946700
H        0.11913800      -3.08018900       0.49328000
H        1.44782600      -0.78035100      -1.03816100
H        1.93942100      -1.35824500       0.54109600
H       -0.31574400      -0.65799600       1.50033200
H        1.08951200       1.57141400      -0.13494300
H       -1.87372400       0.69189300       0.24115400
H        0.03713900       0.48731500      -2.18507800
H       -1.44600300       1.43031600      -2.13458400
H       -1.52188800      -0.32614500      -2.10780100
H       -0.57584300       1.54685700       2.33064800
H       -0.31506200       2.92387800       1.45570300
