20
Properties=species:S:1:pos:R:3 pbc="F F F"
C       -0.26015300      -0.91634900       2.07264900
C        0.69414200      -0.82537500       0.88632000
C        0.01443600      -0.38495400      -0.41622300
C       -0.93230800      -1.41102100      -1.02824600
N        0.87522000       0.36085800      -1.35558300
C       -0.24254700       1.06789500      -0.70860800
C        0.08969000       2.19836800       0.24321700
H        0.26945100      -1.23218200       2.96898700
H       -1.05592000      -1.63523100       1.88729400
H       -0.72342900       0.04638400       2.27951600
H        1.16445600      -1.80291600       0.72765500
H        1.50479400      -0.13120900       1.12194000
H       -1.35684700      -1.04740700      -1.96229800
H       -1.75681600      -1.64084000      -0.35389600
H       -0.41240500      -2.34593400      -1.23738400
H        0.64049500       0.12948900      -2.32385600
H       -1.09739200       1.27766400      -1.36659400
H        0.98169000       1.98125800       0.82432400
H       -0.73233300       2.38130200       0.93532800
H        0.26816300       3.12223800      -0.30657800
