16
Properties=species:S:1:pos:R:3 pbc="F F F"
C       -0.43085200       0.63737500      -2.00649500
C       -0.84301400       0.06136300      -0.64764800
C       -0.30310800      -1.33743500      -0.38780000
C        0.36894500      -1.42591600       0.76850900
C        0.43271300      -0.09050900       1.44416300
C       -0.31233400       0.85529400       0.55825000
N        1.15379300       0.92668000       0.63901000
H       -0.77058600      -0.00331000      -2.81873600
H        0.65039200       0.72829100      -2.07274300
H       -0.86363100       1.62561700      -2.15404000
H       -1.94903600       0.03642400      -0.61020600
H       -0.45116600      -2.15630400      -1.08691700
H        0.82125700      -2.33108000       1.16433100
H        0.47168100       0.00201800       2.53377900
H       -0.88196700       1.70422200       0.95167100
H        1.42240700       1.70632900       1.24591600
