20
Properties=species:S:1:pos:R:3 pbc="F F F"
C        1.79725100       0.83048300      -1.00233000
C        1.24306100       0.16885100       0.26613000
C       -0.01736000      -0.68144900      -0.02739000
C       -1.21820900       0.13614900      -0.48486800
N       -2.56106200      -0.43188600      -0.32358700
C       -2.17293500       0.71275300       0.50329300
C        2.32257900      -0.68623400       0.94400600
H        1.06117400       1.48746600      -1.46035900
H        2.08411000       0.08289200      -1.73925900
H        2.67827300       1.42549600      -0.77065600
H        0.95654200       0.96860100       0.96843700
H       -0.28791900      -1.23835900       0.87666200
H        0.22523100      -1.43194100      -0.78943800
H       -1.08337700       0.67777200      -1.42835000
H       -2.52344000      -1.29585700       0.22264700
H       -2.00775900       0.52620000       1.56629600
H       -2.69303600       1.64567100       0.27980300
H        2.63022700      -1.50888800       0.30151300
H        1.95623800      -1.10914100       1.87733800
H        3.20485100      -0.09002600       1.16743000
