20
Properties=species:S:1:pos:R:3 pbc="F F F"
C       -1.65193900       0.19541800       1.16108100
C       -0.14970200       0.38615200       0.91997200
C        0.40510400      -0.40189500      -0.30187900
N        1.86690500      -0.48303200      -0.33979700
C       -0.31839600      -1.59551400      -0.86254800
C       -0.27334600      -0.30998800      -1.63886500
C        0.18323400       1.88237700       0.79301600
H       -1.88885200      -0.84044800       1.39337400
H       -2.23493700       0.49040100       0.29107000
H       -1.97870500       0.80572300       2.00083900
H        0.37849000       0.00583500       1.81123100
H        2.22832800      -0.91481100       0.50838600
H        2.28256300       0.44188200      -0.42882500
H       -1.26987100      -1.89388000      -0.43557000
H        0.28646700      -2.41662500      -1.23136800
H       -1.19268800       0.26218500      -1.71510200
H        0.35132500      -0.28349000      -2.52493800
H       -0.32053900       2.32167300      -0.06560000
H        1.25345200       2.03749700       0.66937200
H       -0.13308900       2.42598400       1.68105000
