20
Properties=species:S:1:pos:R:3 pbc="F F F"
C       -2.76406800       0.35041500       0.19000200
C       -1.25132600       0.35568900       0.26417000
C       -0.45500800       1.19916400      -0.69010300
C       -0.43732200      -0.29703100      -0.81966800
C        0.79337800      -1.16429700      -0.53326200
C        2.04752100      -0.45729900       0.00144700
N        1.93471800      -0.08357700       1.41367400
H       -3.18798500       1.18930800       0.74205800
H       -3.17597000      -0.56411200       0.61616700
H       -3.10539400       0.42273100      -0.84042700
H       -0.85740400       0.28111300       1.27831300
H        0.43151900       1.69894900      -0.31300000
H       -0.99653000       1.76216600      -1.44421400
H       -1.03154400      -0.68054200      -1.65207200
H        0.51845500      -1.97030900       0.15703800
H        1.07188500      -1.65955800      -1.47123500
H        2.28800900       0.41546200      -0.64192500
H        2.89871000      -1.14757700      -0.09670100
H        1.19551000       0.60028500       1.55062400
H        2.80866100       0.31727400       1.74414100
