20
Properties=species:S:1:pos:R:3 pbc="F F F"
C       -0.32032500      -1.80795100      -1.86454100
C       -0.55743800      -0.36513800      -1.42684800
C       -0.14339500      -0.08825700       0.02676300
C       -0.98919000      -0.78576300       1.08306700
N        1.30332600      -0.00854800       0.30210400
C        0.51414000       1.23400600       0.31840100
C        0.38448800       1.97584200       1.63304900
H       -0.58681300      -1.94133500      -2.91118800
H       -0.91715700      -2.50212600      -1.27679100
H        0.72542300      -2.08360700      -1.74531800
H       -1.61826300      -0.11885100      -1.55481600
H       -0.00390400       0.30611500      -2.09310900
H       -1.01667700      -1.86108300       0.91171400
H       -2.01705600      -0.42342600       1.06134400
H       -0.59008600      -0.62010600       2.07959100
H        1.83913500      -0.08172100      -0.56620400
H        0.66833700       1.89152700      -0.54890400
H        0.35303000       1.29053600       2.47551000
H       -0.52092500       2.58271000       1.65344100
H        1.23200000       2.64476900       1.78064900
