16
Properties=species:S:1:pos:R:3 pbc="F F F"
N       -0.76596300       1.08656400       2.43208000
C       -1.04890100       0.82125100       1.34896500
C       -1.43312900       0.49535700      -0.02431100
C       -0.71415800      -0.75303300      -0.57160300
C        0.78807900      -0.58416700      -0.69511700
C        1.63255900      -1.29798800       0.06048000
C        1.27821800       0.39988000      -1.72163700
H       -1.22700300       1.36448400      -0.66056200
H       -2.51816800       0.33558500      -0.04947000
H       -1.13683800      -0.97801700      -1.55865700
H       -0.93900400      -1.60688800       0.07332000
H        1.26815700      -2.00247400       0.79779400
H        2.70489200      -1.18156300      -0.03551500
H        0.93852800       1.41053900      -1.49055200
H        0.89152900       0.15376000      -2.71145000
H        2.36364400       0.41082100      -1.77013100
