19
Properties=species:S:1:pos:R:3 pbc="F F F"
C       -1.34441900       1.07814900       2.06662000
C        0.10093300       1.37981900       1.69798700
C        0.53965300       0.82718100       0.34463100
N       -0.42902400       0.80866800      -0.75891300
C        0.06082400      -0.47204500      -0.22050900
C        0.97553200      -1.33273200      -1.09635200
N        0.24017200      -2.15235700      -2.07134100
H       -1.61534300       1.58070300       2.99309900
H       -1.50445000       0.01095600       2.20771100
H       -2.01831200       1.41714200       1.28387600
H        0.77060300       0.99076600       2.47580100
H        0.25019900       2.46664000       1.69408400
H        1.56051200       1.12341300       0.06253300
H        0.03587300       1.02417100      -1.64473300
H       -0.70072000      -1.02873300       0.33792700
H        1.68222000      -0.68829500      -1.63901000
H        1.57749300      -2.00417100      -0.46606000
H       -0.34256700      -1.55874700      -2.65743100
H       -0.36868200      -2.81025500      -1.59028100
