17
Properties=species:S:1:pos:R:3 pbc="F F F"
C       -0.27972500      -2.48858400       0.80439900
C       -0.89915100      -1.22736100       0.21504500
C       -0.14523200       0.06551000       0.60793900
C       -0.83835800       1.35007000       0.10571100
C        0.11346200       1.80419300      -0.97510300
N        1.19874900       1.09594900      -1.04157600
N        1.20760100       0.13847400      -0.01948800
H       -0.84373700      -3.37061200       0.50854300
H       -0.26894800      -2.44624400       1.89187500
H        0.74676700      -2.62413600       0.46766500
H       -1.93773900      -1.14605200       0.55408800
H       -0.93680900      -1.30917900      -0.87584500
H       -0.03798400       0.08025200       1.71084900
H       -0.93491800       2.09923600       0.90270100
H       -1.85293200       1.17437000      -0.27407700
H       -0.05762000       2.63862800      -1.65429600
H        1.57349800      -0.76020200      -0.35200900
