19
Properties=species:S:1:pos:R:3 pbc="F F F"
C       -1.57176000      -0.11014600      -0.27349700
C       -0.09113400      -0.04347400       0.07436200
C        0.23522500      -0.07724800       1.57483600
N       -0.36015000      -1.23167100       2.25244900
N        0.85454700      -0.77852000      -0.79135000
C        0.86958900       0.69358100      -0.81937900
C        0.46032000       1.42467400      -2.08162300
H       -2.01275200      -1.04069000       0.08252700
H       -1.73614600      -0.06200100      -1.34735800
H       -2.11990800       0.71123500       0.18906200
H       -0.09396700       0.88142800       2.03762100
H        1.32393800      -0.12436300       1.70326000
H       -1.37524700      -1.19385900       2.21617300
H       -0.07283000      -1.25919200       3.22700600
H        0.36851800      -1.14068400      -1.61587300
H        1.75764400       1.12076400      -0.33525000
H       -0.34621300       0.91578200      -2.60462600
H        1.30271200       1.49903400      -2.76896000
H        0.13003400       2.43956400      -1.85946500
