20
Properties=species:S:1:pos:R:3 pbc="F F F"
C        0.08814200       0.92853300       2.53625800
C       -0.06315600       1.76655100       1.27385200
C        0.17669500       1.03199800      -0.04362900
C        1.28258400       0.03121500      -0.22008500
C       -0.15067500      -0.41887100      -0.24966000
C       -0.77995700      -0.88006000      -1.55719300
N       -0.53766300      -2.30916800      -1.77869300
H       -0.06690600       1.54616400       3.41866900
H        1.08159100       0.49057800       2.60747400
H       -0.63795900       0.11877700       2.56662200
H        0.62561300       2.61913800       1.32854400
H       -1.07044200       2.20146500       1.25396800
H        0.00308000       1.67144700      -0.91294300
H        1.88216700      -0.23289100       0.64500700
H        1.83157100       0.05010600      -1.15705300
H       -0.48632300      -0.97380700       0.62668700
H       -0.39228800      -0.25873800      -2.39279000
H       -1.86867500      -0.71184800      -1.52957200
H        0.45949800      -2.50693900      -1.76789900
H       -0.91909400      -2.60546600      -2.67312600
