16
Properties=species:S:1:pos:R:3 pbc="F F F"
C       -1.20087000       0.30440200      -2.69650000
C       -1.68665700      -0.03053300      -1.50101800
C       -0.89101300      -0.35389100      -0.26651900
C        0.62866900      -0.29238300      -0.43327700
C        1.37498100      -0.63833000       0.86411000
C        1.07510300       0.28898900       1.95583000
N        0.84260300       1.01494800       2.81776700
H       -1.86540900       0.52209700      -3.52338600
H       -0.13720300       0.37526900      -2.88879900
H       -2.76818500      -0.08258900      -1.36933400
H       -1.18073900      -1.35403400       0.08418900
H       -1.19590800       0.33004200       0.53605400
H        0.92528500       0.70650600      -0.76595600
H        0.94752300      -0.99005700      -1.21398300
H        2.45749900      -0.62819200       0.68905700
H        1.11764600      -1.65320200       1.19202900
