20
Properties=species:S:1:pos:R:3 pbc="F F F"
C        0.70077300      -0.72506700       1.69770800
C        0.19442300      -0.47526100       0.28177900
C       -1.34199300      -0.40801800       0.16367000
N       -1.94214300       0.76045200       0.82254900
C        0.96464200      -1.11067100      -0.84965800
C        1.06467600       0.37237200      -0.61976800
C        0.50118300       1.35119600      -1.62871600
H        1.78731000      -0.77404900       1.72420700
H        0.31216400      -1.66364500       2.09354100
H        0.38632800       0.06965300       2.37488000
H       -1.63589300      -0.40234700      -0.89447000
H       -1.77809700      -1.31529700       0.60744200
H       -1.57017400       1.61849000       0.42234600
H       -1.72683600       0.75612700       1.81664200
H        0.40258700      -1.44600300      -1.71622500
H        1.82777700      -1.72406800      -0.60888600
H        2.00315500       0.70544800      -0.17125500
H       -0.40376500       0.97119200      -2.09644200
H        1.22561200       1.54753200      -2.41918700
H        0.26260400       2.30650200      -1.16053000
