20
Properties=species:S:1:pos:R:3 pbc="F F F"
C       -1.37252600       2.45175100      -0.64471500
C        0.06721700       2.19148700      -0.21924500
C        0.22618800       0.97394900       0.70610200
C       -0.06871500      -0.35835800       0.02669100
C        0.99863600      -1.03307900      -0.80213300
C        0.59424100      -1.62887300       0.50653300
N       -0.12378600      -2.89679300       0.51584700
H       -1.43464500       3.33620300      -1.27547000
H       -2.01308700       2.61165000       0.22045700
H       -1.77671400       1.61304700      -1.20729300
H        0.45337500       3.07808900       0.29601800
H        0.69115700       2.05609200      -1.10850800
H       -0.43120400       1.09545700       1.57638300
H        1.25073300       0.95656500       1.09381000
H       -1.08550100      -0.46356500      -0.35401700
H        1.96874000      -0.55015400      -0.86893300
H        0.68474700      -1.53727800      -1.71090100
H        1.30726900      -1.53558800       1.33188900
H       -0.64932700      -3.01999800      -0.34529400
H       -0.76928800      -2.94422800       1.30154100
