20
Properties=species:S:1:pos:R:3 pbc="F F F"
C        1.83874100      -2.13849400      -0.18206700
C        0.78917900      -1.35162000      -0.96031900
C       -0.06858800      -0.46639700      -0.06269800
C        0.36490200       0.92253300       0.29255800
C       -0.80901000       0.71876200      -0.64854900
C       -2.23053300       1.02064500      -0.22463900
N        0.18345500       1.40393200       1.65456100
H        2.42896300      -2.76433800      -0.84859500
H        1.37183700      -2.78466400       0.55859500
H        2.51836900      -1.47016800       0.34193300
H        0.14607400      -2.05194300      -1.50761000
H        1.28292500      -0.73342200      -1.71802500
H       -0.60200600      -1.00533300       0.72252700
H        1.29056700       1.28355300      -0.16948500
H       -0.60604200       0.92166200      -1.70193200
H       -2.37404000       0.83326100       0.83771400
H       -2.94506200       0.40363300      -0.76990700
H       -2.48447600       2.06335200      -0.41718700
H       -0.52403700       0.86126300       2.14202500
H       -0.09540700       2.38304200       1.66229600
