18
Properties=species:S:1:pos:R:3 pbc="F F F"
C       -1.41818700      -1.34016100      -1.11289300
C       -0.06171500      -0.87398400      -0.57968500
C        0.05458900      -0.95864100       0.96627300
C        0.98007700       0.19028200       1.41047300
C        0.90571900       1.21706700       0.28831400
C        0.27551600       0.58594100      -0.90636100
N       -0.44222700       1.60921300      -0.13990100
H       -1.61745900      -2.37095300      -0.82533300
H       -1.44753200      -1.28421000      -2.19946100
H       -2.22513200      -0.72174100      -0.72423300
H        0.71947900      -1.51063900      -1.02881300
H        0.42929300      -1.93314500       1.28982200
H       -0.93371500      -0.84218700       1.42232000
H        2.01176100      -0.16271400       1.52403300
H        0.68072300       0.59957000       2.38158400
H        1.67404200       1.99304900       0.21557800
H        0.54295500       0.86002800      -1.93183300
H       -1.15482300       1.18543700       0.45890600
