20
Properties=species:S:1:pos:R:3 pbc="F F F"
C        1.86962000       0.98155100       1.29026600
C        1.08979700      -0.16707800       0.63324200
C       -0.36119900       0.25710100       0.35583300
C       -0.82087900       0.86195000      -0.93132800
N       -1.15549200      -0.52687700      -0.59609800
C       -2.54750100      -0.79003400      -0.22796500
C        1.81260200      -0.68497500      -0.61432900
H        2.87978800       0.66854000       1.54569600
H        1.37894800       1.31247100       2.20388000
H        1.94515000       1.83790300       0.62287500
H        1.04934400      -0.99636500       1.36092800
H       -0.89788700       0.59809700       1.25391300
H       -0.12547500       0.98863700      -1.76257600
H       -1.63013900       1.59607400      -0.89620500
H       -3.14580500      -0.95038600      -1.13004200
H       -3.00742700       0.03195100       0.34498600
H       -2.60476000      -1.69920200       0.37832400
H        1.97229300       0.11052400      -1.33962500
H        1.23332700      -1.46958000      -1.09498200
H        2.78644000      -1.09160700      -0.34880200
