20
Properties=species:S:1:pos:R:3 pbc="F F F"
C       -0.52226900      -0.50225500      -1.98927100
C       -0.62001000      -0.64016700      -0.47163300
N        0.30829900      -1.64764100       0.11717100
C        1.06252600      -0.60426700       0.84326100
C        0.02660700       0.47363200       0.42485800
C        0.61269000       1.69733000      -0.29162800
C       -0.89121500       0.91744800       1.57444200
H       -0.89891700      -1.40181300      -2.47409700
H        0.50522500      -0.35616400      -2.31740900
H       -1.11381600       0.33918400      -2.34543700
H       -1.67442200      -0.85239700      -0.20239800
H        0.86693400      -2.14404300      -0.58062700
H        2.07557900      -0.43525300       0.44362000
H        1.15377100      -0.79792000       1.92437000
H        1.29345100       1.40836600      -1.08956400
H        1.16890800       2.31793000       0.40948200
H       -0.17445600       2.31217400      -0.72511300
H       -1.30159800       0.05710800       2.09880700
H       -1.72348600       1.51294000       1.20128400
H       -0.34523000       1.52305200       2.29670200
