19
Properties=species:S:1:pos:R:3 pbc="F F F"
C       -1.98004800       0.01305100      -0.31294800
C       -0.48683200       0.02860000      -0.63904400
C        0.35167000      -1.15600900      -0.05060400
N        1.24445200      -1.86947700      -0.96885200
C        1.04903700      -0.12254400       0.85303300
N        0.36814800       0.98158700       0.14042200
C       -0.24425700       2.03958600       0.93434000
H       -2.48083100      -0.77331000      -0.87594300
H       -2.45051000       0.96001800      -0.57302800
H       -2.15631000      -0.17065700       0.74528300
H       -0.35771900       0.17442200      -1.73183600
H       -0.25448200      -1.89622500       0.49857400
H        1.84089200      -1.21432900      -1.46878900
H        0.71005900      -2.40467500      -1.64953600
H        2.14874100      -0.07930300       0.78979800
H        0.77358200      -0.20150000       1.91949200
H        0.53809300       2.62349300       1.42997300
H       -0.92722600       1.66760200       1.72084700
H       -0.80991500       2.71359100       0.28551000
