15
Properties=species:S:1:pos:R:3 pbc="F F F"
C       -2.11882300      -0.74235900      -0.29092800
C       -0.60574400      -0.60686400      -0.42910200
N        0.18880500      -1.67920000       0.22795300
C        1.04960500      -0.68879800       0.90151000
C        0.10432800       0.45326400       0.46562600
C        0.70857800       1.59731700      -0.21004300
N        1.19091300       2.49157100      -0.75308100
H       -2.47540600      -1.61478700      -0.83496100
H       -2.62275800       0.13490400      -0.69178100
H       -2.40946400      -0.85567600       0.75130400
H       -0.33479400      -0.48713600      -1.49551500
H        0.68421100      -2.29255800      -0.42326100
H        2.06145900      -0.61685700       0.47435800
H        1.14499500      -0.84216600       1.98788000
H       -0.53393400       0.81232000       1.28549700
