18
Properties=species:S:1:pos:R:3 pbc="F F F"
C       -1.24123800      -1.93183600       1.90545500
C       -0.22469400      -0.85473200       2.15616600
C        0.08879900       0.13237900       1.30609700
C       -0.52001000       0.34982200      -0.05495600
C        0.51107000       0.24203800      -1.17763200
C        1.28835700       1.42418800      -1.64415200
N        0.18631800       0.89283600      -2.44889000
H       -1.34213800      -2.57651200       2.77458100
H       -0.95944000      -2.55871100       1.05830900
H       -2.22364100      -1.51453800       1.68310700
H        0.29398500      -0.89498200       3.11310900
H        0.85187700       0.85115600       1.60585600
H       -0.97538400       1.34679000      -0.09507100
H       -1.32506000      -0.37187200      -0.22794000
H        1.01018600      -0.73279100      -1.25300000
H        2.30141900       1.27581400      -2.02419100
H        1.10668500       2.40374100      -1.19980500
H        0.54358400       0.35089500      -3.23859600
