18
Properties=species:S:1:pos:R:3 pbc="F F F"
C       -1.23763100       2.56548100       0.08540800
C        0.16427800       2.22266600      -0.31242400
C        0.76184800       1.02565500      -0.20553300
C        0.15175400      -0.22393200       0.32199200
N        1.07578800      -1.24553800       0.85545600
C        0.36118900      -1.53639200      -0.38726700
C       -0.71885800      -2.59719300      -0.38870800
H       -1.81937900       2.87647800      -0.78470300
H       -1.24419700       3.40376000       0.78391400
H       -1.75363900       1.73068400       0.55259900
H        0.74051700       3.04771100      -0.73075800
H        1.79245200       0.93070200      -0.54557300
H       -0.79505300      -0.11695800       0.86425600
H        0.64193000      -1.73648500       1.64121600
H        1.00344300      -1.53234200      -1.27562900
H       -1.32099800      -2.54861500       0.51679200
H       -0.28503100      -3.59553200      -0.44905200
H       -1.38604000      -2.47835000      -1.24206500
