14
Properties=species:S:1:pos:R:3 pbc="F F F"
C       -2.68056500      -0.32296800      -0.75355500
C       -1.25374800      -0.19823500      -0.34230200
C       -0.42529800      -1.25388800      -0.19495900
C        0.97484300      -1.21982100       0.20318600
C        1.76333800      -0.15316900       0.48267000
C        1.38292800       1.22584200       0.44407400
N        1.15274900       2.35992400       0.43447900
H       -2.87008600       0.24640500      -1.66556800
H       -3.34058700       0.08857800       0.01269500
H       -2.96346200      -1.35861700      -0.92925400
H       -0.89085400       0.81070900      -0.15715000
H       -0.82296300      -2.25066500      -0.38505900
H        1.44812300      -2.19835900       0.28219900
H        2.80159700      -0.32407900       0.76610300
