15
Properties=species:S:1:pos:R:3 pbc="F F F"
C       -2.51667100       0.48252000       0.55651800
C       -1.01837400       0.39424900       0.35975200
N       -0.45047500       1.04669000      -0.82670500
C       -0.42336700      -0.41731500      -0.74844300
C        0.91677900      -1.13794800      -0.59883400
C        1.83813600      -0.46804600       0.31796800
N        2.56733000       0.05924100       1.03527200
H       -2.79299900       1.43240700       1.01206100
H       -2.87304100      -0.31370400       1.20967100
H       -3.03815900       0.40290000      -0.39401100
H       -0.42237300       0.47937600       1.27642300
H        0.47126200       1.43774000      -0.61438800
H       -1.10525900      -0.91113300      -1.45039200
H        0.75709400      -2.16466600      -0.24291800
H        1.40646900      -1.22518700      -1.57818500
