16
Properties=species:S:1:pos:R:3 pbc="F F F"
C        0.16753800       0.23480300       2.59418000
C       -0.03679600       0.35015800       1.09896400
C        1.00530500       1.00204800       0.23821400
C        0.78896800      -0.48178200       0.15609000
C        0.17417600      -1.11744000      -1.08827100
C       -0.86710700      -0.30153300      -1.71213200
N       -1.68821600       0.32734200      -2.21674400
H       -0.14480500       1.14630700       3.10241600
H        1.21374700       0.05902600       2.83478400
H       -0.41519600      -0.58792800       3.00748600
H       -1.07015600       0.52251100       0.79607100
H        1.91677500       1.34960100       0.71412300
H        0.66759700       1.60943100      -0.59517700
H        1.56272400      -1.10201900       0.61113900
H       -0.25935500      -2.09534900      -0.83769900
H        0.95367800      -1.31049200      -1.83820700
