19
Properties=species:S:1:pos:R:3 pbc="F F F"
C       -2.33345400       1.29049200       1.28581700
C       -0.85037900       1.00545500       1.17483700
N       -0.12677100       1.61614200       0.04975500
C       -0.28878100       0.15479400       0.08052800
C        0.93743000      -0.71775000       0.32011700
C        1.67190600      -1.07667400      -0.97929800
N        0.84473000      -1.92549700      -1.83922400
H       -2.51356900       2.25416800       1.76182900
H       -2.83465700       0.52913100       1.88356800
H       -2.79849900       1.31069100       0.30348900
H       -0.31150900       0.99556000       2.13200700
H        0.82026900       1.87686900       0.33505200
H       -0.97993000      -0.22547200      -0.67899400
H        1.62926700      -0.20388100       0.99706400
H        0.63811700      -1.64423500       0.82773100
H        2.63814000      -1.56441300      -0.72524700
H        1.92372300      -0.16049500      -1.53064800
H        0.61010100      -2.79549300      -1.36789600
H        1.33249600      -2.14484700      -2.70367600
