18
Properties=species:S:1:pos:R:3 pbc="F F F"
C        1.19339000      -1.40639600      -0.94212100
C        0.65192800      -0.50980100       0.18015600
C       -0.90812400      -0.52792900       0.27150800
C       -1.57280100       0.08952600      -0.96358700
C       -1.37866600       0.16876100       1.55373700
C        1.16381900       0.86390200       0.03927700
N        1.57242400       1.93497700      -0.06358400
H        2.28035100      -1.43934900      -0.91642000
H        0.89301800      -1.04269200      -1.92180600
H        0.81970600      -2.42200200      -0.82803900
H        1.04089400      -0.89352500       1.13931500
H       -1.20656300      -1.58729000       0.32821100
H       -1.28158300       1.13047000      -1.08322200
H       -2.65585900       0.05208300      -0.86912100
H       -1.29744400      -0.44537600      -1.86987400
H       -1.09393000       1.21857200       1.55327500
H       -0.94145400      -0.29842500       2.43442200
H       -2.46138200       0.11432200       1.64453600
