15
Properties=species:S:1:pos:R:3 pbc="F F F"
C       -1.84894500       0.00115200       0.43785900
C       -0.30421000       0.00072800       0.43657000
C        0.23049000       0.00286900       1.88584800
C        0.27194700       1.13709000      -0.39198800
N        0.97405300       0.73039900      -1.39913600
N        0.97370100      -0.73518500      -1.39688100
C        0.27141400      -1.13847200      -0.38847100
H       -2.23127700       0.88479100       0.94640800
H       -2.23171900      -0.87709900       0.95534100
H       -2.23965600      -0.00387400      -0.57710200
H       -0.11624100       0.88565400       2.42071900
H        1.31797000       0.00079000       1.90016100
H       -0.11967200      -0.87625600       2.42451000
H        0.13157500       2.20168000      -0.19176800
H        0.13056300      -2.20238100      -0.18505300
