18
Properties=species:S:1:pos:R:3 pbc="F F F"
C        1.56062100       0.26588200      -2.41266800
C        1.68635900      -0.28711100      -1.20620700
C        1.41899100       0.42586000       0.09124600
C        0.41008900      -0.31760800       0.98598200
C       -0.99289300      -0.35002200       0.39342300
C       -2.18168700      -0.53685500       1.27218600
N       -1.90827600       0.76421200       0.65840800
H        1.78070600      -0.29427100      -3.31327400
H        1.23104600       1.29131000      -2.53274900
H        2.01515800      -1.32409000      -1.12346000
H        1.06514800       1.44201400      -0.10537600
H        2.36499300       0.52157700       0.64182100
H        0.37971400       0.16152300       1.97100400
H        0.76513700      -1.34309400       1.15015700
H       -1.05049600      -0.73592700      -0.63044400
H       -2.03215500      -0.62107400       2.35072300
H       -3.06443100      -1.05436800       0.89346800
H       -1.50577100       1.40603700       1.34551300
