18
Properties=species:S:1:pos:R:3 pbc="F F F"
C       -1.77797900       0.68257400      -0.13106400
C       -1.66040800      -0.82622800       0.14825000
N       -0.26778300      -1.19995700      -0.15901600
C        0.55487400       0.01254800       0.00403700
C       -0.37462600       1.22995500       0.14561700
C        1.86667900       0.09043900      -0.71469500
C        1.83890300      -0.07604200       0.78219700
H       -2.54470800       1.16166500       0.48313900
H       -2.05473000       0.85352200      -1.17662000
H       -2.35488200      -1.42789700      -0.45014700
H       -1.88352600      -1.03457400       1.20854400
H       -0.20328100      -1.53962700      -1.12231100
H       -0.10584400       2.03832800      -0.54136600
H       -0.31554100       1.64859200       1.15649900
H        2.18903400       1.05065400      -1.10594300
H        2.18314800      -0.76391900      -1.30514200
H        2.14358700       0.77479900       1.38389100
H        2.13657100      -1.04132000       1.17651800
