20
Properties=species:S:1:pos:R:3 pbc="F F F"
C        0.61840600       0.16597900      -2.51588100
C       -0.40602300      -0.29897100      -1.48913200
C       -0.08435500      -0.00729900      -0.01195700
C       -1.21326500      -0.47669700       0.92155500
C       -0.91948000      -0.33597900       2.40823400
N        1.28778400      -0.21499800       0.47194500
C        0.77705600       1.15656100       0.36403100
H        0.31021800      -0.13586700      -3.51469000
H        1.59933200      -0.26766200      -2.32960000
H        0.72458600       1.24866200      -2.51693700
H       -0.55315000      -1.38020500      -1.60228300
H       -1.37634400       0.15399400      -1.72739100
H       -1.42808600      -1.52948700       0.69910800
H       -2.13133200       0.07122400       0.67322200
H        0.02600800      -0.80987600       2.65972600
H       -1.70491600      -0.80633400       2.99679400
H       -0.86141200       0.70893200       2.70670900
H        1.92113500      -0.42310600      -0.30317100
H        1.20259200       1.78435900      -0.42083100
H        0.62284900       1.66878800       1.31462700
