20
Properties=species:S:1:pos:R:3 pbc="F F F"
C       -1.05341000       1.02988300      -1.99093300
C        0.38759100       0.86452200      -1.62007100
C        0.90862300       0.29108300      -0.52632100
C        0.17680300      -0.34763700       0.68002700
N       -0.79898300       0.59059200       1.29583600
C       -0.56910400      -1.63270900       0.25195400
C        1.22643900      -0.70225700       1.75833600
H       -1.33831600       2.08361900      -1.96011100
H       -1.72661900       0.47885300      -1.34103600
H       -1.21884300       0.68990900      -3.01364900
H        1.08603000       1.27701000      -2.35054100
H        1.99753200       0.27744000      -0.46259400
H       -1.53783300       0.82483700       0.63865400
H       -0.32965900       1.45126500       1.56725700
H       -1.33297400      -1.41920200      -0.49173200
H       -1.05565600      -2.09186000       1.10969400
H        0.12243300      -2.35579100      -0.17376800
H        1.75472500       0.18906000       2.09136000
H        1.96204100      -1.40473000       1.37262800
H        0.74836600      -1.15185900       2.62503400
