20
Properties=species:S:1:pos:R:3 pbc="F F F"
C       -2.49901400       0.95283600       0.39486700
C       -0.96659100       0.91077300       0.32443500
C       -0.46078100      -0.55122200       0.32336400
C        1.04893700      -0.66946600       0.48926000
N        1.87800100      -0.71609100      -0.71837700
C        1.77426700      -1.91657500       0.11219100
C       -0.45372600       1.69015000      -0.89217500
H       -2.86350000       0.43917000       1.28271300
H       -2.94402800       0.47339700      -0.47492900
H       -2.85691200       1.97984700       0.42854500
H       -0.57417800       1.40067100       1.23177500
H       -0.76408700      -1.04734400      -0.60279200
H       -0.95369400      -1.09144000       1.14232900
H        1.46642300      -0.09905000       1.33086100
H        2.77325100      -0.24775200      -0.56358800
H        2.65871500      -2.20907500       0.68252800
H        1.22939400      -2.74696200      -0.33929500
H       -0.82075800       1.25158100      -1.81772500
H        0.63263200       1.68521100      -0.92756100
H       -0.78780400       2.72540500      -0.85587100
