20
Properties=species:S:1:pos:R:3 pbc="F F F"
C        1.93761000      -0.32011400      -0.65108400
C        1.19276800       0.16809400       0.59556500
C       -0.26013700       0.57874200       0.30387600
C       -0.69051000       1.26686700      -0.95186500
N       -1.01565500      -0.14536700      -0.72413100
C       -2.41461600      -0.44893700      -0.41909900
C        1.22978400      -0.89417300       1.70539200
H        2.94428400      -0.64283000      -0.39264700
H        2.02036000       0.46929500      -1.39537500
H        1.41885600      -1.15987100      -1.10719700
H        1.71794100       1.06230900       0.97687200
H       -0.82877200       0.84970000       1.20628800
H        0.02487400       1.46150900      -1.75267500
H       -1.50999500       1.98776900      -0.88823600
H       -2.98172400      -0.55811500      -1.34862600
H       -2.90396600       0.32899100       0.18981500
H       -2.47869400      -1.39587800       0.12539500
H        0.73338900      -1.80780900       1.38615900
H        0.72816700      -0.53603100       2.60277600
H        2.25546500      -1.14434300       1.96966100
