18
Properties=species:S:1:pos:R:3 pbc="F F F"
C       -1.02316200       0.84435500      -2.98447900
C       -1.14764400       0.34879900      -1.57860400
C       -0.12961600       0.26395200      -0.71208100
C       -0.27014600      -0.24145700       0.70123200
C        0.65850800      -1.41973600       1.09275300
C        1.38255000      -0.44423100       2.02503700
N        0.39242400       0.61564800       1.73356300
H       -1.67075300       1.70679700      -3.15176600
H       -1.33110800       0.07620800      -3.69609600
H       -0.00137300       1.13479400      -3.21762200
H       -2.14467700       0.03909700      -1.26251200
H        0.86828700       0.57291500      -1.02629300
H       -1.33884100      -0.41818200       0.93189600
H        1.26346800      -1.83391000       0.28262100
H        0.14802700      -2.24332300       1.59798400
H        2.40741000      -0.19146500       1.70904500
H        1.42100700      -0.72826000       3.08917000
H        0.80865300       1.46570600       1.34549000
