16
Properties=species:S:1:pos:R:3 pbc="F F F"
C        0.74505600      -2.05054300      -0.71202500
C        0.20501100      -0.85113900       0.07874100
C       -1.26235600      -0.91924500       0.18812700
N       -2.40837600      -0.97381900       0.27560200
C        0.64937100       0.49339700      -0.55606700
C        0.22030600       1.68722900       0.25155700
C        1.05501100       2.62504500       0.69947700
H        1.83209400      -2.02062100      -0.74925000
H        0.37217200      -2.04454500      -1.73384100
H        0.44568200      -2.98752500      -0.24810300
H        0.60551700      -0.90002400       1.10489100
H        0.22323500       0.56242700      -1.56507700
H        1.73729800       0.48575400      -0.67301300
H       -0.84591600       1.76674000       0.46221500
H        2.12052000       2.57294800       0.50634700
H        0.69364500       3.47311900       1.26775700
