18
Properties=species:S:1:pos:R:3 pbc="F F F"
C       -2.61559500       0.35089700      -1.47344200
C       -1.51234400       0.38052700      -0.72509300
C       -0.88919400      -0.83351400      -0.09269900
C        0.58900000      -1.02619700      -0.47615500
C        1.58350000      -0.10842400       0.23110800
C        1.56603800       0.13687200       1.70183100
N        1.13825300       1.17866600       0.76777200
H       -3.03077600       1.25613700      -1.89945000
H       -3.13586100      -0.57745400      -1.68064700
H       -1.01157500       1.32926100      -0.53747900
H       -1.45139700      -1.72776200      -0.38219100
H       -0.97155100      -0.75260700       0.99878000
H        0.69945500      -0.89847600      -1.55906900
H        0.87359500      -2.06679200      -0.27070800
H        2.57810200      -0.10390300      -0.23736000
H        2.51519100       0.28810700       2.22062600
H        0.77414500      -0.28785700       2.32027900
H        1.86447100       1.88971700       0.65951200
