18
Properties=species:S:1:pos:R:3 pbc="F F F"
C       -2.16459100       0.23977100      -0.03909900
C       -0.65145200       0.09021500      -0.00594900
C       -0.05832600      -1.33087200       0.10909300
N        1.39616900      -0.99524400       0.13449100
C        1.32084400       0.48600600      -0.00168800
C        0.23174800       0.84466700       1.01673800
C        0.26212500       0.69704600      -1.10091000
H       -2.61714600      -0.17954900       0.85843400
H       -2.58996300      -0.27677900      -0.89860900
H       -2.45438300       1.28730500      -0.10148900
H       -0.31266400      -1.97832400      -0.74339400
H       -0.37099000      -1.85325100       1.02785100
H        1.86863700      -1.40243800      -0.67829300
H        2.30547700       0.97836400      -0.01919000
H        0.01523500       1.91348300       1.06767700
H        0.31938100       0.42696500       2.02299200
H        0.37620700       0.14341900      -2.03817200
H        0.04494400       1.74651100      -1.30834500
