18
Properties=species:S:1:pos:R:3 pbc="F F F"
C       -0.27349900      -2.94983400       1.64321200
C       -0.68455400      -1.71326800       0.90823100
C        0.14248600      -0.69954000       0.61329500
C       -0.28438700       0.52579600      -0.11262900
C        0.25171400       1.87919100       0.26380500
N        0.72232800       1.21488300      -0.94714400
C        0.24182200       1.75943600      -2.21754500
H       -0.87589400      -3.08907100       2.54279500
H        0.77303800      -2.91081500       1.93643600
H       -0.42123400      -3.83770000       1.02533600
H       -1.72867200      -1.65908500       0.59780200
H        1.18747800      -0.74709200       0.91826200
H       -1.30955800       0.51085100      -0.50705100
H        0.98540400       1.96585700       1.06758100
H       -0.40662400       2.74423900       0.14613900
H        0.88129700       2.59141800      -2.52754700
H       -0.79618000       2.12664900      -2.16678600
H        0.29316000       0.98988300      -2.99317000
