18
Properties=species:S:1:pos:R:3 pbc="F F F"
C        0.59959000       1.39749700       1.86165500
C       -0.03466800       0.92040400       0.58145500
C       -1.29955600       1.25826000       0.27171800
C        0.83077500       0.04724900      -0.26495800
C        0.49420100      -0.29148800      -1.70254300
C        0.40551400      -1.36769100      -0.68115900
N       -0.88151100      -1.92347700      -0.32335000
H       -0.08660100       2.00572700       2.44501600
H        1.49066300       1.99110800       1.65344300
H        0.91741300       0.55444800       2.47640900
H       -1.88357000       1.88123400       0.93652600
H       -1.76408400       0.95062000      -0.65627100
H        1.89668700       0.14849500      -0.05412100
H        1.31756500      -0.31304400      -2.41065800
H       -0.43146900       0.10716000      -2.10432300
H        1.20481000      -2.11559000      -0.67607300
H       -1.60715600      -1.21132300      -0.35735600
H       -0.85882300      -2.31988300       0.61385700
