14
Properties=species:S:1:pos:R:3 pbc="F F F"
C       -2.54032500      -0.27790200      -1.29393800
C       -1.33744200      -0.20717300      -1.21641500
C        0.12060400      -0.13818100      -1.13765000
C        0.66106900      -0.44000000       0.28525000
C        0.19123800       0.56824100       1.25035300
N       -0.16222900       1.35284800       2.01358800
C        2.19347300      -0.52158600       0.29117700
H       -3.60021500      -0.32126300      -1.35091300
H        0.45780100       0.85479500      -1.45896900
H        0.55496800      -0.85984800      -1.84165100
H        0.25544600      -1.41193200       0.61001100
H        2.63667500       0.41992800      -0.02614700
H        2.53437500      -1.30124000      -0.38728600
H        2.56485300      -0.75076600       1.28717500
