18
Properties=species:S:1:pos:R:3 pbc="F F F"
N       -2.92026600       0.95792400       0.41033400
C       -1.51949400       0.55586600       0.55563200
C       -0.90635900       0.25839000      -0.78756900
C        0.33830000      -0.17365200      -1.07712700
C        1.47668800      -0.47579700      -0.19582400
C        2.62605300      -0.92244900      -0.74624200
C        1.38091400      -0.28877600       1.29403400
H       -3.33968800       1.13850400       1.31837600
H       -3.45825900       0.23317100      -0.05753900
H       -1.41643000      -0.32461700       1.22756700
H       -0.97599200       1.37456600       1.05505400
H       -1.57469900       0.41750500      -1.63379800
H        0.55848400      -0.32792900      -2.13440200
H        2.71543800      -1.06290600      -1.81650400
H        3.48984100      -1.15363000      -0.13605200
H        1.12203300       0.73881400       1.54895000
H        2.32821400      -0.52573200       1.77221900
H        0.61630600      -0.93470800       1.72636100
