18
Properties=species:S:1:pos:R:3 pbc="F F F"
C        0.32832500      -0.00659000       1.95974600
C       -0.26657500      -0.01094400       0.53988100
N       -1.74454200      -0.03794600       0.65654500
C        0.20310700      -1.25411700      -0.28718200
C        0.75379800      -0.68460900      -1.56129900
C        0.76476500       0.65229100      -1.56523500
C        0.22420700       1.23669700      -0.29318700
H        1.41569000      -0.01222000       1.92813300
H        0.00047900      -0.88064300       2.51848500
H        0.01199000       0.87831200       2.51024900
H       -2.17036700      -0.00853200      -0.26705400
H       -2.07412800       0.76468500       1.18811400
H       -0.62566300      -1.94648800      -0.47381000
H        0.96717000      -1.83373600       0.24704600
H        1.10812800      -1.30996500      -2.37581300
H        1.12814000       1.26838100      -2.38297600
H       -0.59291900       1.94388100      -0.48337500
H        0.99750300       1.80558400       0.23884300
