20
Properties=species:S:1:pos:R:3 pbc="F F F"
C       -0.69187000       2.72801300      -0.92080100
C        0.31962800       1.89877100      -1.65971000
C        0.55440300       0.59513800      -1.45747600
C       -0.16064000      -0.28684700      -0.46879100
C        0.80549000      -1.16460200       0.34113500
C        0.08440100      -2.13014100       1.28669400
N       -0.72421800      -1.41409700       2.27647100
H       -0.75780300       3.72562900      -1.34745700
H       -0.42681500       2.83556200       0.13238500
H       -1.68545900       2.28162900      -0.95807800
H        0.90687000       2.41728900      -2.41666800
H        1.32040300       0.10784400      -2.06190800
H       -0.85931800      -0.94129200      -1.01002200
H       -0.76873500       0.31332700       0.21221500
H        1.48183200      -0.52548900       0.91962900
H        1.43787400      -1.74191500      -0.34272900
H        0.83823900      -2.78819700       1.77087900
H       -0.57604300      -2.79463900       0.70977400
H       -0.14866700      -0.76652700       2.80852300
H       -1.16132500      -2.06653700       2.92185600
