15
Properties=species:S:1:pos:R:3 pbc="F F F"
C       -1.71497400       0.36498400       0.97829000
C       -0.19128500       0.34283800       0.78470000
N        0.27819300       1.48581700      -0.03523300
N        0.75987400       1.04290300      -1.24884200
C        0.85470800      -0.26731500      -1.23494200
C        0.31875500      -0.84817500      -0.00708900
C        0.27999900      -2.14468700       0.36033600
H       -2.02457400       1.25804100       1.51977200
H       -2.03844400      -0.50482200       1.54571800
H       -2.23011500       0.35419600       0.02036900
H        0.28585900       0.38380800       1.78543800
H       -0.34077400       2.29785800      -0.11050300
H        1.26592300      -0.80856900      -2.08372600
H        0.69682700      -2.91565000      -0.27532400
H       -0.16438600      -2.45177900       1.29900700
