18
Properties=species:S:1:pos:R:3 pbc="F F F"
C        0.48625400       0.57975500       2.42284700
C        0.01744000       0.66902400       0.98450800
C        0.76916100       1.46780700      -0.03230100
N        0.83542900       0.00082600      -0.03037000
C        0.18550000      -0.71447200      -1.12979400
C       -0.91445600      -1.68851100      -0.86454600
C       -1.20604900      -0.42240500      -1.62295900
H        0.08030200       1.39798400       3.01759000
H        1.57095900       0.62466300       2.48260900
H        0.16290300      -0.35356400       2.88307800
H       -1.07178100       0.61604800       0.85605700
H        1.69280700       1.97855600       0.24751500
H        0.20618600       1.94301900      -0.83929400
H        0.90793500      -1.00683600      -1.90101800
H       -1.30158300      -1.75787500       0.14697200
H       -0.92751600      -2.62471500      -1.41464300
H       -1.79903300       0.33740400      -1.12455800
H       -1.39627800      -0.50765100      -2.68824900
