19
Properties=species:S:1:pos:R:3 pbc="F F F"
C       -2.43866300       0.30085600       0.90824600
C       -0.99430900       0.78820700       0.94212500
C       -0.09354100       0.05637400      -0.05833000
N       -0.48643400       0.27430700      -1.45163200
C        0.42551900      -1.31249100       0.29577900
C        1.36861100      -0.11745500       0.28395000
N        2.38591500       0.01679100      -0.74698400
H       -3.05464700       0.86104000       1.60925500
H       -2.49983200      -0.75295800       1.17280500
H       -2.86105500       0.42077600      -0.08639300
H       -0.58711900       0.66489500       1.95113500
H       -0.97037400       1.86357300       0.72770300
H       -0.03385600      -0.39054900      -2.07206800
H       -0.26060400       1.22055900      -1.75130600
H        0.52354700      -2.03588300      -0.50721300
H        0.15151300      -1.73780400       1.25657500
H        1.69288900       0.23860000       1.26858800
H        1.96566400       0.08678900      -1.67023500
H        3.03180300      -0.76967000      -0.73914700
