17
Properties=species:S:1:pos:R:3 pbc="F F F"
C       -0.09394500      -0.95314500      -2.48019400
C       -0.56525000      -1.34235900      -1.07940100
C       -0.16593400      -0.35509700      -0.01427600
N        0.54714500      -0.69502100       1.01778400
N        0.67709400       0.40761600       1.89503000
C        0.21108600       1.63083800       1.20580300
C       -0.57396400       1.10732800       0.00101800
H       -0.41760700      -1.69012400      -3.21245100
H        0.99121500      -0.89026200      -2.52424500
H       -0.49671200       0.01337100      -2.77743600
H       -0.16729800      -2.32758200      -0.81999800
H       -1.65983200      -1.44189200      -1.09153600
H        1.63321500       0.47052100       2.26023200
H        1.06469500       2.26032700       0.89621700
H       -0.40341400       2.24979000       1.87916700
H       -0.32769700       1.62521100      -0.93330300
H       -1.65819800       1.21708900       0.13596000
