20
Properties=species:S:1:pos:R:3 pbc="F F F"
C       -3.57207700      -0.21042600      -0.02708200
C       -2.07449300      -0.08518600       0.00542000
C       -1.24121600      -1.08684600      -0.30352200
C        0.26384500      -1.03248500      -0.29348600
C        0.87794000       0.31058900       0.10483000
C        2.40866800       0.27624000       0.07292700
N        2.96950100       1.56906700       0.47269600
H       -4.04822000       0.72403900       0.25764500
H       -3.92457600      -0.98442400       0.65561500
H       -3.93083400      -0.47593200      -1.02216500
H       -1.67187700       0.88231400       0.29974900
H       -1.66298400      -2.04985700      -0.59555900
H        0.63067800      -1.31902400      -1.28998500
H        0.63779900      -1.81800900       0.37914800
H        0.54358800       0.59093500       1.10831200
H        0.52034100       1.09632800      -0.57004200
H        2.75027400      -0.02748000      -0.94031700
H        2.77964000      -0.49601200       0.76298200
H        2.62898000       2.31131500      -0.13308700
H        3.98467400       1.55101700       0.42430700
