11
Properties=species:S:1:pos:R:3 pbc="F F F"
C        0.86741200       0.94990000      -0.00197400
C        1.95505900      -0.07979700      -0.00548800
N        1.49333100      -1.29334500      -0.00487400
N        0.05736800      -1.24444200      -0.00085700
C       -0.31072000       0.01183600       0.00088900
C       -1.67818400       0.44073700       0.00497200
C       -2.80813400       0.88144400       0.00839200
H        0.89078500       1.60401900      -0.88093600
H        0.89571900       1.60342900       0.87727500
H        3.02616900       0.12518200      -0.00833500
H       -3.82015900       1.20715500       0.01136900
