18
Properties=species:S:1:pos:R:3 pbc="F F F"
C       -2.05349900       0.83923000      -0.11362400
C       -0.66334800       0.28824700       0.12481200
C       -0.47691600      -1.20602400       0.38831100
C        1.02580800      -1.46168600       0.16938300
C        1.53380700      -0.35455000      -0.77423200
C        0.55992000       0.79505600      -0.57005200
N        0.31950700       1.12363700       0.85036800
H       -2.54737800       0.32027600      -0.93560900
H       -2.01968800       1.89964500      -0.35803700
H       -2.68212600       0.72168900       0.76967400
H       -1.08226900      -1.78372200      -0.32045700
H       -0.79696600      -1.50398800       1.39183300
H        1.21895900      -2.46229200      -0.22803300
H        1.55088100      -1.39439300       1.12570000
H        1.50689600      -0.68392200      -1.82003500
H        2.57116900      -0.08097300      -0.55527500
H        0.52488500       1.61940800      -1.28999000
H       -0.03554000       2.08117500       0.92007000
