20
Properties=species:S:1:pos:R:3 pbc="F F F"
C       -0.92974500      -0.51776200       2.47507700
C        0.28645600       0.10798800       1.82594200
C        0.16671600       1.37952300       1.03393800
C        0.51056100       0.09374000       0.33742400
C       -0.47079700      -0.55876400      -0.62836900
C       -0.34827000      -0.03206400      -2.06572000
N        0.90760200      -0.44957400      -2.69496300
H       -1.08811200      -0.10648500       3.47181900
H       -0.80986800      -1.59602800       2.58057800
H       -1.83120900      -0.33518400       1.89512800
H        1.19368000       0.01936100       2.42744100
H        0.94288700       2.13079700       1.14575000
H       -0.82920800       1.78318200       0.88180200
H        1.55597600      -0.00331700       0.03573400
H       -1.49491100      -0.38952400      -0.28087000
H       -0.31577400      -1.64379600      -0.63090200
H       -0.46321400       1.07261700      -2.06536200
H       -1.18232800      -0.42587400      -2.66608400
H        1.70562200      -0.11580000      -2.16074100
H        0.97371200      -0.07890000      -3.63930600
