20
Properties=species:S:1:pos:R:3 pbc="F F F"
C        0.78404300      -3.13051500      -0.23767800
C        1.10981200      -1.72077600      -0.71460100
C        0.15022200      -0.66774400      -0.14674900
C        0.48773800       0.74327800      -0.63949600
C       -0.35569000       1.87329700      -0.05352400
C       -1.72702900       1.68166900       0.49582000
N       -0.60066600       1.96277500       1.38895600
H        1.48151500      -3.85241500      -0.65717700
H       -0.22077800      -3.42236500      -0.53687400
H        0.84080600      -3.20072800       0.84687500
H        1.07714500      -1.68934600      -1.80898800
H        2.13725000      -1.46744600      -0.43221100
H        0.18516800      -0.69908700       0.94805600
H       -0.87606000      -0.92604400      -0.42878100
H        0.39602400       0.77160300      -1.73255800
H        1.54425400       0.95282100      -0.42872100
H       -0.14167700       2.84683000      -0.51383200
H       -2.15589000       0.67880200       0.53095800
H       -2.46089600       2.48456700       0.40653500
H       -0.29677800       1.10813100       1.86138700
