20
Properties=species:S:1:pos:R:3 pbc="F F F"
C       -0.59743300       1.69011900      -1.56479200
N       -0.52289600       1.03428600      -0.25396600
C        0.30974800      -0.16941800      -0.27176900
C       -0.29016400      -1.44392300      -0.78862500
C       -0.01660200      -1.28130500       0.68363500
C        1.08473700      -2.08211100       1.34542500
C       -0.14431200       1.96594100       0.81474500
H       -0.94020200       0.97571900      -2.31731800
H        0.37338100       2.09829700      -1.90206400
H       -1.30927400       2.51960800      -1.52460500
H        1.38100300      -0.01214800      -0.49709600
H        0.34746400      -2.11735000      -1.35307100
H       -1.32559200      -1.42406400      -1.11200400
H       -0.89947400      -1.12893200       1.30562700
H        1.95151200      -2.17021000       0.69350300
H        0.74754900      -3.08908600       1.59119500
H        1.41036500      -1.61070300       2.27265100
H       -0.85042800       2.80046300       0.84650700
H        0.86894400       2.38883000       0.68283500
H       -0.17081900       1.45375400       1.77988800
