18
Properties=species:S:1:pos:R:3 pbc="F F F"
C       -0.60677700       0.78941600       2.78032200
C       -0.69491600       0.79787900       1.26868400
C        0.40274600       1.35396100       0.41982300
N        0.20493100      -0.09564200       0.52784000
C       -0.36945400      -0.76435900      -0.65514200
C        0.70408500      -1.15367400      -1.63707500
C        0.55940800      -1.12438200      -2.96208300
H       -0.99860200       1.71607900       3.19961800
H        0.42366300       0.67918200       3.10946000
H       -1.18381200      -0.03314000       3.20256900
H       -1.71284100       0.89585900       0.86498200
H        1.31167300       1.73601500       0.88778900
H        0.13829000       1.82785500      -0.52834400
H       -1.14142000      -0.14411900      -1.15290600
H       -0.88447600      -1.67897600      -0.30893700
H        1.64498300      -1.49784100      -1.20814900
H       -0.36002400      -0.78402600      -3.42543500
H        1.35750100      -1.44044600      -3.62270300
