20
Properties=species:S:1:pos:R:3 pbc="F F F"
N       -2.60813100      -1.06282800       1.69723100
C       -1.17799200      -1.21350200       1.41867500
C       -0.72027300      -0.20596400       0.36009400
C        0.78368000      -0.31835400       0.06379000
C        1.25747800       0.63874800      -1.01094500
C        1.71601100       0.19552400      -2.18989800
C        1.20513400       2.10692200      -0.68877800
H       -2.91412200      -1.74545800       2.38551600
H       -3.15511600      -1.18947800       0.84941200
H       -0.92706300      -2.24242700       1.08206000
H       -0.61956100      -1.05361200       2.35284100
H       -0.95911600       0.80708300       0.69771100
H       -1.28846100      -0.36466700      -0.56274800
H        1.01707000      -1.34580800      -0.23428500
H        1.34273200      -0.12691700       0.98907800
H        1.75307800      -0.86306500      -2.41555600
H        2.06120500       0.88258700      -2.95262000
H        0.17946600       2.42984600      -0.50634600
H        1.61048600       2.70587500      -1.50016500
H        1.77208700       2.32559000       0.21685800
