20
Properties=species:S:1:pos:R:3 pbc="F F F"
C        2.07688500      -1.92705300       0.06810100
C        1.03468100      -1.27055800      -0.83080000
C        0.00064500      -0.46967200      -0.04690300
C        0.18072400       0.99255800       0.23880700
N       -0.77653700       0.53582000      -0.78726100
C       -2.20897100       0.62528300      -0.50304400
C       -0.28181300       1.62155600       1.53764200
H        2.79876500      -2.48917700      -0.52075300
H        1.61104300      -2.61498100       0.77151900
H        2.62301900      -1.18312800       0.64509700
H        0.52820700      -2.04450100      -1.42025200
H        1.53175700      -0.61250100      -1.55011700
H       -0.55912200      -1.04312400       0.70581100
H        1.06312000       1.48022200      -0.19784600
H       -2.54136900       1.66359600      -0.59273400
H       -2.48744900       0.26025700       0.49829100
H       -2.76446700       0.03286000      -1.23792000
H       -1.06725700       1.04073200       2.01557200
H       -0.66224400       2.62980000       1.37232000
H        0.54885400       1.69651900       2.23901800
