15
Properties=species:S:1:pos:R:3 pbc="F F F"
N       -2.42561700       0.09665300       0.72507500
C       -1.28055800       0.03287900       0.84410300
C        0.15574700      -0.04664300       1.04876500
C        1.10273000       0.65174700       0.10246500
N        0.99187900      -0.80930200       0.09996200
C        0.33782300      -1.48328600      -1.02502500
C        0.60876800       1.50667900      -1.04512400
H        0.44378800      -0.15514200       2.10201900
H        2.04269400       1.00552000       0.54847100
H        1.05070900      -1.58020600      -1.84809000
H       -0.55451500      -0.96316300      -1.39799000
H        0.04039400      -2.48953900      -0.71713900
H       -0.39028900       1.22209600      -1.36410800
H        1.27704700       1.42688300      -1.90204900
H        0.57928700       2.55384400      -0.74747300
