18
Properties=species:S:1:pos:R:3 pbc="F F F"
C       -2.21277200      -0.35174400       0.07039900
C       -0.72858700      -0.37603200      -0.12197500
C        0.02880300      -1.46154500      -0.33768800
C        1.48462800      -1.12898200      -0.51395000
C        1.57614400       0.38119800      -0.22713100
C        0.11877600       0.90104000      -0.12797700
N       -0.07867900       1.77604300       1.04390300
H       -2.62622600      -1.35738500       0.10046100
H       -2.70378300       0.19283600      -0.73895600
H       -2.48059800       0.15449900       0.99963200
H       -0.34791300      -2.47900700      -0.39982700
H        1.82134600      -1.36903000      -1.53174200
H        2.12380200      -1.71659500       0.15703400
H        2.14048200       0.90638000      -1.00230900
H        2.10220400       0.56144000       0.71394700
H       -0.13600700       1.50189800      -1.02381400
H        0.08695600       1.25718900       1.90342500
H       -1.03145700       2.13187000       1.06475600
