16
Properties=species:S:1:pos:R:3 pbc="F F F"
C       -1.15157000      -2.34786500      -0.65581700
C       -1.47790600      -0.87272000      -0.85803300
C       -0.71122000       0.03393800       0.09619300
N       -0.59727100       1.44663100      -0.26537000
C        0.62080500       0.61565700      -0.28568000
C        1.63349600       0.84737100       0.72916000
C        2.49021300       1.03525600       1.56278100
H       -1.73625200      -2.96964500      -1.32998400
H       -1.37101000      -2.66068600       0.36332100
H       -0.09861500      -2.54777700      -0.84453500
H       -2.55351700      -0.71651500      -0.71449200
H       -1.25884800      -0.58077700      -1.88942000
H       -0.86404700      -0.17650600       1.16205200
H       -0.60990300       2.03710600       0.57003000
H        1.01263400       0.41130500      -1.28900600
H        3.23754900       1.20725600       2.29800100
