18
Properties=species:S:1:pos:R:3 pbc="F F F"
C       -2.79710900      -0.44761400      -0.98291300
C       -1.33876100      -0.33491800      -0.67446800
C       -0.50606300       0.51660100      -1.30058000
C        0.93799000       0.64959700      -1.07218000
C        1.61772600       0.55202300       0.08510000
C        1.04736400       0.34979700       1.46585000
N        1.41692000      -0.96602400       2.00866700
H       -3.04924900      -1.45669300      -1.31501000
H       -3.09785400       0.25178100      -1.75990500
H       -3.40041400      -0.25068900      -0.09442100
H       -0.95522400      -1.01037800       0.08895400
H       -0.90877500       1.13466600      -2.10521500
H        1.51322400       0.88800400      -1.96925200
H        2.70073400       0.67273900       0.04502300
H       -0.04945500       0.50457500       1.46099800
H        1.46487600       1.12157600       2.13424100
H        1.08691000      -1.70888600       1.39800700
H        1.00990800      -1.09743800       2.93105000
