20
Properties=species:S:1:pos:R:3 pbc="F F F"
C       -2.03772800       0.26134600       0.96355900
C       -0.53242600       0.14746000       0.83828800
C        0.22544000       0.95847300      -0.19933800
C        0.14519100      -0.56007600      -0.30538200
C       -0.66584400      -1.16770900      -1.43910800
N        1.31752800      -1.37280000       0.02771000
C        1.50281800       1.68277700       0.17187500
H       -2.30942700       1.08425900       1.62441200
H       -2.46817100      -0.64935700       1.38024300
H       -2.50847700       0.44286400      -0.00003100
H       -0.02129400       0.04828400       1.79778400
H       -0.40495500       1.50625600      -0.90164500
H       -1.49837800      -0.52928400      -1.72383700
H       -1.06468700      -2.14119200      -1.15695300
H       -0.04130900      -1.31472300      -2.32032700
H        1.77798500      -1.02485700       0.86404300
H        1.98710700      -1.37134500      -0.73919200
H        2.08236700       1.12187200       0.90267600
H        1.28739900       2.66099300       0.60225300
H        2.13443800       1.84221000      -0.70275800
