20
Properties=species:S:1:pos:R:3 pbc="F F F"
C        2.49820400      -1.09901500       0.90777800
C        1.31262600      -0.98799400      -0.04560800
C        0.15994900      -0.18763300       0.55174500
C        0.08329900       1.31283400       0.35783100
C       -0.94295400       0.39705000      -0.28375800
C       -2.35801200       0.39493600       0.27164500
N       -0.91631700       0.20321800      -1.73439400
H        3.30113600      -1.68342200       0.46261100
H        2.20748200      -1.58322000       1.83807800
H        2.89446300      -0.11638300       1.15483800
H        0.96293900      -1.99464400      -0.30498100
H        1.64505000      -0.52635800      -0.98109600
H       -0.13892100      -0.53228200       1.54376300
H        0.83176800       1.76562600      -0.28432200
H       -0.20766000       1.91859200       1.21057500
H       -2.35507100       0.51631900       1.35220600
H       -2.86791800      -0.53826700       0.03623100
H       -2.94797300       1.20590100      -0.15644100
H        0.03488100       0.23991400      -2.09021600
H       -1.46462300       0.92462800      -2.19828400
