16
Properties=species:S:1:pos:R:3 pbc="F F F"
C       -1.26051700      -0.62187800       0.89078300
C        0.25596800      -0.52777000       0.69606600
C        0.74807500      -1.72649100      -0.01594700
N        1.13553400      -2.66297100      -0.56079700
C        0.83138200       0.71438000       0.02345100
C        0.26399800       1.80394700      -0.51197500
C       -1.17166100       2.19018000      -0.67236200
H       -1.50063700      -1.52411600       1.45047000
H       -1.78671900      -0.67438500      -0.05882300
H       -1.63329600       0.23006700       1.45401900
H        0.71877900      -0.57004400       1.70189300
H        1.92178000       0.68387900      -0.00109100
H        0.95621000       2.55154000      -0.90370800
H       -1.87190800       1.40653700      -0.40990300
H       -1.36058500       2.47726600      -1.70713300
H       -1.39583200       3.06585000      -0.06024100
