14
Properties=species:S:1:pos:R:3 pbc="F F F"
C       -2.30255500       0.67518300      -2.02344900
C       -1.02696700       0.92263000      -1.69029400
C       -0.35090500       0.29868200      -0.55875300
C        0.93034400       0.55784700      -0.23538400
C        1.67576500      -0.05642400       0.91910000
C        0.88905300      -0.99765200       1.71600700
N        0.28945600      -1.74074800       2.35772500
H       -2.76580100       1.16179400      -2.87256100
H       -2.90866600      -0.01899700      -1.45274700
H       -0.44240600       1.62640700      -2.28363200
H       -0.92606500      -0.40608300       0.04013400
H        1.50529200       1.26354600      -0.83530700
H        2.05076200       0.73453900       1.58604700
H        2.57227400      -0.57757000       0.55063300
