16
Properties=species:S:1:pos:R:3 pbc="F F F"
C       -1.67041900       0.01934100      -1.85586200
C       -1.40893100       0.01140400      -0.35507700
C       -0.47287300      -1.08601200       0.19421200
C        0.32919000      -0.00624300       0.95463800
C       -0.45612500       1.09061700       0.20131800
C        1.78164000      -0.01607200       0.78204400
N        2.92433100      -0.02283700       0.63884400
H       -2.24596900      -0.85532600      -2.15317600
H       -0.73823500       0.01449600      -2.41691300
H       -2.23227500       0.90560000      -2.14491300
H       -2.36764400       0.01692800       0.18244400
H        0.11042400      -1.58508000      -0.58139900
H       -0.93993400      -1.85000100       0.82115700
H        0.10469400      -0.00823400       2.03149600
H        0.13479000       1.58538700      -0.57132400
H       -0.91106400       1.85787800       0.83307800
