20
Properties=species:S:1:pos:R:3 pbc="F F F"
C       -0.00734100       2.68609700      -0.90192700
C       -0.39329400       1.22181300      -0.71872200
C       -0.05415900       0.69187800       0.66826600
C        1.34246200       0.21895800       0.97336300
C        0.21771800      -0.76999000       0.89686800
N        0.19304200      -1.69590900      -0.22824400
C       -1.10095800      -2.34504100      -0.42747000
H       -0.27429000       3.03672300      -1.89716700
H        1.06372500       2.82706700      -0.77235900
H       -0.51462600       3.31989200      -0.17662600
H        0.11253600       0.60991900      -1.47108300
H       -1.46970400       1.10852100      -0.89809000
H       -0.55815600       1.21431800       1.48444200
H        1.76139100       0.44800300       1.94887000
H        2.06108400       0.22477600       0.16070700
H       -0.13374000      -1.18234600       1.86120400
H        0.92179400      -2.40596900      -0.11614000
H       -1.86792500      -1.59886400      -0.65004600
H       -1.44092000      -2.91843700       0.45439000
H       -1.03903500      -3.03453500      -1.27266200
