18
Properties=species:S:1:pos:R:3 pbc="F F F"
C       -0.81673100       0.06858200      -1.85838900
C       -1.31091000       0.02239700      -0.42917500
C       -0.62328800       0.72040600       0.72762900
C       -0.63210700      -0.77165900       0.66867000
C        0.80079600      -1.23900800       0.45731200
C        1.63957600       0.04663300       0.31032200
N        0.74519900       1.19939400       0.56642500
H       -1.24506600       0.92167100      -2.38522700
H       -1.10916400      -0.82995200      -2.40270000
H        0.26484100       0.15407700      -1.91370100
H       -2.40103200       0.01299400      -0.35291600
H       -1.23997300       1.27176600       1.44780100
H       -1.26876600      -1.35911500       1.33210100
H        0.90645900      -1.89171000      -0.41740000
H        1.13171700      -1.82682300       1.32036400
H        2.08930900       0.11858400      -0.69424300
H        2.48904200       0.04982200       1.01803500
H        0.82222100       1.89882400      -0.17529800
