22
Properties=species:S:1:pos:R:3 pbc="F F F"
C       -1.19284400       2.14225500      -1.55491100
C       -1.45716000       1.94894800      -0.06634600
C       -0.96175200       0.60478900       0.48625600
C        0.56655500       0.47341300       0.50156700
C        1.06863700      -0.79813700       1.20109200
C        0.70043500      -2.11215100       0.50083400
N        1.38188300      -2.25266400      -0.78847100
H       -1.59480000       3.09419800      -1.89577800
H       -1.65931500       1.35263100      -2.14076400
H       -0.12732200       2.13374200      -1.77361300
H       -2.53471900       2.02657000       0.11571800
H       -0.99217400       2.76689800       0.49466700
H       -1.39897100      -0.21102500      -0.09891700
H       -1.34015900       0.48604100       1.50795600
H        0.99254300       1.34294500       1.01503800
H        0.95231900       0.50958200      -0.52251200
H        0.67321300      -0.82417600       2.22305600
H        2.15805000      -0.74072100       1.29250000
H       -0.40275600      -2.18534000       0.39522500
H        0.99941600      -2.95372200       1.14412100
H        1.15944300      -1.47055700      -1.39859000
H        1.09882300      -3.11311600      -1.24976100
