12
Properties=species:S:1:pos:R:3 pbc="F F F"
C       -2.41287800      -0.32769500      -1.21469300
C       -1.20602600      -0.31374400      -1.18308300
C        0.25787100      -0.31207500      -1.15339200
C        0.81233400      -0.24556400       0.26045800
C        1.60900400      -1.19586400       0.77472500
C        0.45521400       0.91985400       1.03772500
N        0.17771300       1.86120000       1.64419100
H       -3.47522600      -0.32702800      -1.23269900
H        0.62478000       0.55032100      -1.72902100
H        0.63584500      -1.21213700      -1.65325600
H        1.87766700      -2.07007000       0.19334100
H        1.99982400      -1.11896200       1.78185000
