22
Properties=species:S:1:pos:R:3 pbc="F F F"
N        0.00201600       2.27242600      -1.48654900
C       -0.15171400       0.82279500      -1.33532300
C        0.21965700       0.35549100       0.09285800
C       -0.31698300      -1.08859300       0.36334900
C        0.26475400      -1.70744800       1.64372800
C       -1.85173900      -1.11415400       0.44115100
C        1.73814000       0.45728600       0.30506400
H       -0.24451500       2.55990100      -2.42995900
H        0.96018200       2.55834500      -1.30327000
H        0.46076000       0.26228800      -2.07371200
H       -1.19842700       0.57215300      -1.55513900
H       -0.26616300       1.03651900       0.80797000
H       -0.01016900      -1.72623100      -0.48245900
H        0.08189700      -1.07151900       2.50759900
H        1.33690600      -1.86723800       1.56110800
H       -0.19834300      -2.67282800       1.83846700
H       -2.20998300      -0.48874200       1.25658400
H       -2.20713900      -2.12736100       0.61860100
H       -2.31245400      -0.75971300      -0.47814900
H        2.27115900      -0.27566300      -0.29855000
H        2.00729500       0.29675000       1.34625200
H        2.10218900       1.44409300       0.02553500
