12
Properties=species:S:1:pos:R:3 pbc="F F F"
C       -3.18891500      -0.06515500       0.23099800
C       -1.73493900      -0.07176800       0.25747200
C       -0.52163700      -0.08191200       0.28834100
C        0.91937000      -0.08606300       0.30051600
C        1.64593500      -0.39807800       1.39503600
C        1.57250300       0.26852400      -0.94468300
N        2.09740100       0.55038300      -1.93207100
H       -3.56143800       0.81508100      -0.29566600
H       -3.59620200      -0.05654600       1.24337800
H       -3.56769900      -0.95159700      -0.28119700
H        1.16160200      -0.66280500       2.32606400
H        2.72803100      -0.39009800       1.36583900
