20
Properties=species:S:1:pos:R:3 pbc="F F F"
C       -1.92770900       0.08885300      -0.61017600
C       -0.39186400       0.10604000      -0.51177300
C        0.08105300      -0.67048800       0.70510600
C        0.28281900      -0.17853700       1.93446300
C        0.09167000       1.23899200       2.37699600
C        0.23745800      -0.45389800      -1.80452900
N        1.69894500      -0.40715800      -1.74386600
H       -2.37739600       0.52579500       0.27834200
H       -2.30337200      -0.92786900      -0.70963500
H       -2.26665700       0.65640600      -1.47575800
H       -0.07511300       1.15698900      -0.40993700
H        0.25597200      -1.73432300       0.54545800
H        0.61493200      -0.86544500       2.71361900
H       -0.10483600       1.90852700       1.54336600
H        0.97495600       1.59974800       2.90581100
H       -0.74618000       1.31595900       3.07329500
H       -0.16065900       0.11285900      -2.67438800
H       -0.07597400      -1.49862300      -1.95001400
H        2.02284400       0.53771900      -1.55474800
H        2.10830400      -0.72341300      -2.61886900
