19
Properties=species:S:1:pos:R:3 pbc="F F F"
C       -1.55269200      -0.36391200      -0.82214700
C       -0.09210100      -0.58599900      -0.45693000
C        0.24937400      -0.51990500       1.03616400
C       -0.23045600       0.75694500       1.73865500
N        0.17417800       1.95656400       1.00628200
C        0.72910600      -1.48091700      -1.33389800
N        0.92302400      -0.02717600      -1.36427300
H       -2.19980800      -1.07085400      -0.30256000
H       -1.71144500      -0.48811900      -1.89179200
H       -1.87434600       0.63987200      -0.54889300
H        1.33507300      -0.60655500       1.14661600
H       -0.18558100      -1.38618500       1.55132200
H        0.16154600       0.75375200       2.77878700
H       -1.32860900       0.74507100       1.83347900
H        1.14506400       1.89003100       0.71324200
H        0.05057900       2.79063600       1.57341500
H        0.26469400      -1.93734100      -2.21051600
H        1.56182800      -2.04800400      -0.91392900
H        0.48120800       0.37470800      -2.19430800
