18
Properties=species:S:1:pos:R:3 pbc="F F F"
C       -2.31723500       0.33023300      -0.93299500
C       -0.79266500       0.22647500      -0.83103600
C       -0.28828700      -1.02369700      -0.08775400
C        0.99451500      -0.57496100       0.56594000
C        1.91216700      -1.37707200       1.11964600
C        1.07758100       0.92920700       0.48199700
N       -0.21631700       1.35325100      -0.06422900
H       -2.72803500      -0.51850000      -1.47623100
H       -2.60877900       1.23735500      -1.45931500
H       -2.77477100       0.35403900       0.05370300
H       -0.37780500       0.21199100      -1.86723700
H       -0.14718900      -1.88143900      -0.75254000
H       -1.00954900      -1.33854800       0.67719000
H        1.78828400      -2.45276200       1.12749300
H        2.80652000      -0.97555700       1.58030900
H        1.92599200       1.23229700      -0.16690000
H        1.26850000       1.39464900       1.46496800
H       -0.14540800       2.20260200      -0.62662600
