16
Properties=species:S:1:pos:R:3 pbc="F F F"
C       -2.51796000      -0.71011200      -0.89552300
C       -1.34257600      -0.71980700      -1.17415900
C        0.07736900      -0.74399300      -1.52792600
C        1.01065500      -0.57841200      -0.31539000
C        0.87388000       0.77977700       0.35938800
C       -0.02652200       0.96894600       1.53027500
N        1.42701900       0.95807900       1.70534200
H       -3.55098100      -0.69689700      -0.64887900
H        0.27550100       0.05127700      -2.25899200
H        0.29862300      -1.69300200      -2.03382600
H        2.04419600      -0.71626400      -0.65717900
H        0.81439800      -1.37422400       0.41008200
H        1.03448800       1.63848000      -0.30375800
H       -0.58124900       0.10904000       1.90910700
H       -0.50786500       1.93403200       1.69422100
H        1.73468600       0.06260800       2.09184500
