18
Properties=species:S:1:pos:R:3 pbc="F F F"
N       -1.68158000       0.16575700       1.26867500
C       -0.34169800       0.36561600       0.69642100
C       -0.29685000       1.56649000      -0.28229800
C        0.51345000       1.06239000      -1.44351600
C        0.74981300      -0.25065700      -1.36435000
C        0.12717200      -0.87223000      -0.13223000
C        1.06509900      -1.80991600       0.63516000
H       -1.96923900       0.98329700       1.80138700
H       -1.68764800      -0.64028300       1.88953000
H        0.40334100       0.54721900       1.50725900
H        0.14340500       2.46074900       0.17663000
H       -1.30528900       1.85428700      -0.60683200
H        0.83653800       1.70641400      -2.25681300
H        1.29611500      -0.83154700      -2.10253900
H       -0.75718700      -1.45866700      -0.43816900
H        1.96195900      -1.28926000       0.96589600
H        1.37537700      -2.64615200       0.01097100
H        0.57177500      -2.21652000       1.51683700
