22
Properties=species:S:1:pos:R:3 pbc="F F F"
C       -1.06242200       1.85681400      -2.60002200
C       -1.45712800       1.71862900      -1.13437500
C       -0.96032200       0.42439500      -0.47406500
C        0.56304500       0.36795400      -0.30108900
C        1.06218800      -0.93364000       0.33966400
C        0.68662400      -1.08227800       1.81765000
N        1.27093300      -2.30361900       2.37970200
H       -1.47573800       2.76952900      -3.02472000
H       -1.43282100       1.01714800      -3.18494200
H        0.01827200       1.89404600      -2.71911000
H       -2.54935600       1.75356600      -1.05700900
H       -1.08300600       2.58182400      -0.57349500
H       -1.29137300      -0.43661900      -1.06479100
H       -1.44097100       0.32652700       0.50540900
H        0.89356400       1.22302500       0.29966000
H        1.04023300       0.48131500      -1.28035400
H        2.15234300      -0.97901600       0.24872500
H        0.67429800      -1.79205600      -0.22121400
H       -0.41800700      -1.06745600       1.92959300
H        1.06350600      -0.21935000       2.38612200
H        0.96259700      -3.12094900       1.85941700
H        0.99801800      -2.41744600       3.35221900
