20
Properties=species:S:1:pos:R:3 pbc="F F F"
C       -1.14233300      -1.61429500      -1.32323900
C       -1.08932600      -1.77796000       0.19057900
C       -0.02366500      -0.90449200       0.86987800
C       -0.31627600       0.58774600       0.77363100
N        0.68669000       1.54706800       1.26570000
C        0.37510700       1.51964000      -0.17270000
C        1.43903300       1.07975300      -1.15571100
H       -1.89676800      -2.26838700      -1.75543100
H       -0.18478700      -1.86217100      -1.77670900
H       -1.38805700      -0.59145500      -1.60042100
H       -0.89204100      -2.82774700       0.43236200
H       -2.07169200      -1.54496200       0.61568200
H        0.96182300      -1.12824000       0.44880200
H        0.02758800      -1.18519300       1.92954000
H       -1.34168200       0.85597100       1.06022800
H        1.57396200       1.06766700       1.43987700
H       -0.19859000       2.39407900      -0.50561300
H        2.03552200       0.25745200      -0.76636500
H        2.11750800       1.90311700      -1.37869800
H        0.99514000       0.75804000      -2.09778400
