19
Properties=species:S:1:pos:R:3 pbc="F F F"
N       -1.85154500      -1.30613400       1.36444800
C       -0.42842800      -1.15639700       1.04487800
C       -0.24313900      -0.44526000      -0.28910700
C       -0.10498400       1.04365200      -0.37341200
C        1.08933500       0.16269400      -0.68405700
C        2.29250300       0.11552800       0.23540000
N       -0.79642200       1.76812000      -1.43152000
H       -1.97393000      -1.83281100       2.22518700
H       -2.34010700      -1.78917900       0.61501300
H        0.08762300      -2.14240900       1.01282100
H        0.05359800      -0.58551900       1.85149200
H       -0.78926800      -0.91202500      -1.11285900
H       -0.07581000       1.59025700       0.57403400
H        1.33841300       0.05966500      -1.74199900
H        2.02095000       0.36074400       1.26011100
H        3.05121500       0.82936000      -0.08532000
H        2.75466400      -0.87252700       0.23976400
H       -0.96974900       1.16664000      -2.23221300
H       -0.25354600       2.57260600      -1.73873700
