16
Properties=species:S:1:pos:R:3 pbc="F F F"
C       -0.58219100      -2.58890300      -2.33914800
C       -0.67501900      -1.56923600      -1.69803300
C       -0.78383900      -0.33659000      -0.91732800
C        0.06771900      -0.37248200       0.36460500
C       -0.07551300       0.90388000       1.18194700
C        1.04046800       1.38645300       2.04332300
N        0.70172600       2.08853200       0.80443500
H       -0.50214900      -3.48383700      -2.90546100
H       -1.83727800      -0.16786200      -0.65797000
H       -0.47923700       0.51289900      -1.54199300
H        1.11838000      -0.52810400       0.10015400
H       -0.23181800      -1.23506800       0.97092000
H       -1.09967600       1.13245400       1.50126900
H        1.97448700       0.82126000       2.05787200
H        0.82117800       1.92988900       2.96338700
H        1.37428000       1.85991700       0.06858200
