16
Properties=species:S:1:pos:R:3 pbc="F F F"
C       -2.31776500       0.06522600      -0.90633200
C       -0.82088200       0.00451800      -1.20035700
C        0.00404000      -1.11153700      -0.52588800
C        0.96367400       0.00298800      -0.05135800
N       -0.00381600       1.03604400      -0.50401400
C        1.31473300       0.03953100       1.37749300
C        1.63318000       0.02483000       2.54323100
H       -2.83221500      -0.78666400      -1.34730200
H       -2.75423700       0.97328400      -1.31790700
H       -2.50477900       0.05906200       0.16474700
H       -0.65868700       0.02538800      -2.29749400
H        0.43979900      -1.86308400      -1.18914500
H       -0.51851300      -1.61934000       0.28632500
H        1.90329800       0.02016500      -0.64406500
H        0.39978300       1.74468600      -1.12177600
H        1.89037600       0.04086000       3.57398100
