20
Properties=species:S:1:pos:R:3 pbc="F F F"
N       -2.84903500       0.23977500       0.89586300
C       -1.39773900       0.40337200       0.77599000
C       -0.72703300      -0.94068900       0.47943300
C        0.81088500      -0.87905200       0.43823500
C        1.35882000      -0.00803900      -0.67678400
C        1.60746700      -0.51446100      -1.89320200
C        1.62833500       1.44578900      -0.36952700
H       -3.29540600       1.12814600       1.10766800
H       -3.07671500      -0.42194300       1.63365100
H       -0.95447600       0.84348400       1.69556800
H       -1.19214700       1.11427600      -0.03607600
H       -1.10073800      -1.33064800      -0.47192500
H       -1.02423100      -1.66523100       1.24719500
H        1.18771700      -1.89994200       0.31631300
H        1.18384300      -0.51666700       1.40303200
H        1.42111000      -1.55760900      -2.11496000
H        1.99778400       0.10468800      -2.69111500
H        1.37288800       1.69295800       0.65793300
H        1.05791600       2.10223400      -1.02618800
H        2.68129100       1.68631200      -0.51700000
