20
Properties=species:S:1:pos:R:3 pbc="F F F"
C        0.51779800      -3.10060100       0.44954500
C        0.39226500      -1.68314900       0.99299100
C       -0.27380500      -0.72382600      -0.00467500
C       -0.40737600       0.68552700       0.55713500
N        0.71823900       1.62703500       0.43963700
C       -0.52062900       1.90240300      -0.30673700
C       -0.51091800       1.84862900      -1.81998600
H        0.98532900      -3.75657400       1.18070300
H        1.12264900      -3.12160800      -0.45501700
H       -0.45875000      -3.51397700       0.20471300
H        1.38420400      -1.30161900       1.25482400
H       -0.18579600      -1.69798400       1.92326500
H       -1.26612100      -1.11113400      -0.26867200
H        0.30672400      -0.70636300      -0.93273100
H       -0.90471200       0.73034100       1.53482200
H        1.42867800       1.24584600      -0.19074200
H       -1.09238600       2.74469800       0.10284700
H        0.13846500       1.05932400      -2.19219200
H       -0.15749700       2.79193100      -2.23565000
H       -1.51247200       1.67396700      -2.21326900
