17
Properties=species:S:1:pos:R:3 pbc="F F F"
C        1.09550500       0.38524900       1.74476900
C        0.56094900       0.21647300       0.32947400
C        1.36720100      -0.53659400      -0.67877800
N        1.30782100       0.92721500      -0.72703500
C       -0.95782200       0.21372800       0.21686400
C       -1.74356800      -1.04058400       0.02205700
N       -1.54355800      -0.10736300      -1.08696400
H        2.18006200       0.45305000       1.74229700
H        0.80847700      -0.45565100       2.37686200
H        0.70242800       1.29102900       2.20710300
H        0.84586900      -1.07664000      -1.46994700
H        2.33525400      -0.95222800      -0.39354200
H        0.66272500       1.21691200      -1.46737400
H       -1.45797500       1.01480200       0.77904600
H       -2.74777200      -1.10822700       0.44593400
H       -1.22390800      -1.99506800      -0.07559800
H       -2.38859000       0.44342900      -1.25309600
