22
Properties=species:S:1:pos:R:3 pbc="F F F"
C       -1.11593100       2.86233100      -0.71994000
C       -1.42885600       1.57145700      -1.46744600
C       -0.96534200       0.30220100      -0.73804200
C        0.56116900       0.17340900      -0.65076500
C        1.03843100      -1.14683800      -0.03327100
C        0.71912800      -1.28772000       1.45861000
N        1.29571200      -2.52395700       1.99598100
H       -1.49844300       3.72378700      -1.26369700
H       -0.04395300       2.99791800      -0.59362200
H       -1.57001100       2.86133400       0.26904500
H       -0.97090200       1.60765700      -2.46183200
H       -2.51036200       1.50819700      -1.63084700
H       -1.36859400      -0.57113800      -1.26332300
H       -1.39883600       0.28311200       0.26745500
H        0.96907600       1.01188100      -0.07616300
H        0.98120700       0.26179400      -1.65919000
H        2.12167000      -1.22930800      -0.16867800
H        0.59878700      -1.98964900      -0.57934500
H       -0.37935100      -1.24597100       1.61524500
H        1.14003100      -0.43526500       2.01179400
H        0.94773600      -3.33280300       1.48751700
H        1.06036900      -2.63287800       2.97889800
