16
Properties=species:S:1:pos:R:3 pbc="F F F"
C       -1.21176900       0.32338900       1.53397200
C        0.27926900       0.06640300       1.52829400
N        1.11888600       0.84189200       0.60988000
C        0.99979200      -0.60106700       0.39575400
C        0.32327800      -1.11529500      -0.87988600
C       -0.44661900      -0.11914900      -1.62371400
C       -1.07689500       0.65662100      -2.30285600
H       -1.45125100       1.18355100       2.15837800
H       -1.75112400      -0.53474300       1.93505600
H       -1.57903000       0.52171900       0.53151500
H        0.71026000      -0.10452300       2.52555800
H        2.01587200       1.07910600       1.03904000
H        1.87943800      -1.19733300       0.67805500
H       -0.33230600      -1.96506600      -0.63650300
H        1.09665200      -1.51834600      -1.54941000
H       -1.62304900       1.37698500      -2.86022900
