16
Properties=species:S:1:pos:R:3 pbc="F F F"
C        0.53914500      -1.27035300       1.06023400
C        0.07360900       0.16179400       0.76523000
C       -1.37537800       0.31187800       0.99802900
C       -2.56044600       0.44503500       1.19193200
C        0.44249200       0.64590000      -0.65061700
C        0.53046300      -0.25493800      -1.83337400
N        1.74397200       0.24897000      -1.18796100
H        1.59869400      -1.37089100       0.83773500
H       -0.00647300      -1.99645500       0.46183600
H        0.38082700      -1.51367000       2.10849400
H        0.58418900       0.83489400       1.47983400
H       -3.60265600       0.55488200       1.36516400
H        0.14106100       1.68250400      -0.85042200
H        0.28229500       0.14997600      -2.81665400
H        0.35383400      -1.32514700      -1.72400000
H        2.16111600       1.00522300      -1.73485400
