19
Properties=species:S:1:pos:R:3 pbc="F F F"
N       -0.90607400      -0.37516900      -1.84206700
C       -0.65177800      -0.64788500      -0.43084200
C        0.49715500      -1.62554200      -0.04113600
C        0.99948100      -0.61469600       1.00077100
C        0.04580300       0.47609900       0.39873200
C       -0.84392800       1.21290200       1.40583300
N        0.74612000       1.46419100      -0.44489600
H       -1.13882400      -1.22900900      -2.34264700
H       -0.10004300       0.06040300      -2.28172000
H       -1.59742000      -0.95777500       0.04723800
H        1.21326900      -1.78759500      -0.85005500
H        0.19516400      -2.60174400       0.34685600
H        2.06817100      -0.38944500       0.96297000
H        0.74628300      -0.89619400       2.02545000
H       -1.38699700       0.51067600       2.03539900
H       -1.57025300       1.83752300       0.89015700
H       -0.24924900       1.85556800       2.05439000
H        1.45341400       1.00878500      -1.01663900
H        1.20576300       2.16038100       0.13719200
