20
Properties=species:S:1:pos:R:3 pbc="F F F"
C        0.60043800      -2.91164200      -0.21172000
C       -0.19579700      -1.62007500      -0.05703700
N        0.61011700      -0.59184900       0.62432000
C        1.36261800       0.34364400      -0.21568000
C        0.17975300       0.81210000       0.57009600
C       -1.11642300       1.24004500      -0.11131200
C       -1.19958600       2.75339400      -0.28206700
H        0.00286300      -3.67963700      -0.69917900
H        0.91744200      -3.29291000       0.75639100
H        1.49312600      -2.74767900      -0.81216200
H       -1.09720200      -1.81127700       0.54559700
H       -0.54577000      -1.28592800      -1.05352200
H        1.25277300       0.24179400      -1.29869400
H        2.37600200       0.57394400       0.12141600
H        0.38663900       1.35744200       1.50180700
H       -1.20683700       0.76142700      -1.09105700
H       -1.97256000       0.89710000       0.48278100
H       -0.39133200       3.12283300      -0.91032500
H       -1.13068700       3.26077100       0.67844600
H       -2.14129800       3.04026300      -0.74541800
