20
Properties=species:S:1:pos:R:3 pbc="F F F"
C        0.60833900       1.74659300       2.20198100
C       -0.33153600       0.91795400       1.33144400
C        0.29497700       0.55567400      -0.01098900
N        1.12444400      -0.65778400      -0.12632900
C       -0.16108700      -0.60241600      -0.85384000
C       -1.28567600      -1.51535300      -0.38423300
C       -0.04344200      -0.48660500      -2.36900000
H        0.13371800       2.00819800       3.14553000
H        0.89199500       2.66997500       1.70072800
H        1.51968400       1.19601300       2.42385600
H       -1.25740400       1.48238300       1.16241900
H       -0.61863100       0.01043700       1.87227900
H        0.71982500       1.41405200      -0.54661200
H        1.02732300      -1.22841800       0.71773700
H       -1.26842400      -1.66082800       0.69339200
H       -1.20293200      -2.49588700      -0.85209900
H       -2.26007700      -1.10822500      -0.65403100
H        0.79299300       0.14982100      -2.64610100
H       -0.95064200      -0.06375200      -2.80084300
H        0.11200900      -1.46435900      -2.82413000
