20
Properties=species:S:1:pos:R:3 pbc="F F F"
C        0.35643600      -3.42361900      -0.38555400
C        0.67404200      -1.99761300      -0.81716000
C       -0.16096300      -0.95323300      -0.06705300
C        0.15581000       0.48154200      -0.50948700
C       -0.71132100       1.51625700       0.19514700
C       -0.25749900       2.17161900       1.45377100
N       -0.28779000       2.91986300       0.19508500
H        0.95129300      -4.14048700      -0.94753500
H       -0.69357900      -3.65757200      -0.54993000
H        0.56746200      -3.56883100       0.67209800
H        0.50119400      -1.89482000      -1.89371100
H        1.73876900      -1.79595500      -0.65804000
H        0.01093300      -1.05198200       1.01020400
H       -1.22580800      -1.15643300      -0.22521000
H        0.01240100       0.56385400      -1.59418300
H        1.21327400       0.70068000      -0.32374500
H       -1.79099500       1.38071100       0.05820400
H        0.72399800       1.91488000       1.85735900
H       -0.98922700       2.48589100       2.19961600
H        0.65578200       3.01130000      -0.18870500
