14
Properties=species:S:1:pos:R:3 pbc="F F F"
C       -1.39073700       0.02659200      -0.31208800
C       -0.06364100      -0.18819200      -0.35874500
C        0.61320900      -0.89306500      -1.46570500
C        0.02344400      -1.40582100      -2.55335700
C        0.86868600       0.28551600       0.74517700
C        0.21001300       0.98483800       1.84707200
N       -0.28350300       1.53868300       2.72650400
H       -2.04141700      -0.31726000      -1.10695500
H       -1.84590800       0.54884600       0.52002100
H        1.69458900      -0.99253300      -1.36458700
H       -1.04673700      -1.33859800      -2.71092700
H        0.60659000      -1.90786800      -3.31516900
H        1.63404200       0.95047700       0.32048100
H        1.41752700      -0.57305900       1.15748600
