17
Properties=species:S:1:pos:R:3 pbc="F F F"
N        1.77042900       0.63534100       0.69259700
C        2.10398400      -0.62964600       0.03511600
C        1.01960900      -0.56969100       1.05562700
C       -0.46297000      -0.69724700       0.70818300
C       -0.85526500      -0.19454800      -0.67481400
N       -2.25628900       0.16046600      -0.92049900
C       -1.25346600       1.22576000      -0.89443700
H        1.21910800       1.22773700       0.06700900
H        3.07360600      -1.05157200       0.30420400
H        1.84257800      -0.73131200      -1.01965500
H        1.26236100      -0.94765900       2.05697800
H       -1.04966400      -0.15980600       1.46397000
H       -0.75333300      -1.75272300       0.80170200
H       -0.38570000      -0.72351800      -1.51269000
H       -2.79076400       0.15098900      -0.04856900
H       -1.27116600       1.90547300      -0.04028400
H       -1.05735800       1.70396800      -1.85540300
