18
Properties=species:S:1:pos:R:3 pbc="F F F"
C       -2.32401500      -0.20639900      -1.44798700
C       -1.07207400       0.32232100      -0.79936700
C       -0.77619600       1.62879400      -0.81550200
C       -0.20546700      -0.72431200      -0.12580800
C        1.17838100      -0.25291300       0.29778700
C        1.94551600      -0.97763800       1.35145200
N        1.32804700       0.31659600       1.63864900
H       -2.91238700       0.59334000      -1.89022700
H       -2.94715100      -0.72732700      -0.71991100
H       -2.08260200      -0.92695300      -2.23083900
H       -1.43389600       2.34196800      -1.29690800
H        0.11514100       2.01418400      -0.33830800
H       -0.10534600      -1.58227600      -0.80643500
H       -0.73837900      -1.11009500       0.75212900
H        1.77036800       0.22280800      -0.49493800
H        3.03505200      -1.00988400       1.28460300
H        1.49621800      -1.83064300       1.86216000
H        2.02978700       1.05958600       1.64469100
