16
Properties=species:S:1:pos:R:3 pbc="F F F"
C       -1.21998500      -2.11069600      -0.61421600
C       -0.01268800      -1.58575500      -0.81583500
C        0.59378700      -0.46192200       0.01100300
N       -0.29599200       0.04231200       1.08007600
C       -0.29409400       1.51409400       1.06459800
C        0.43081100       1.86993200      -0.20019000
C        0.92106700       0.77909600      -0.79388200
H       -1.59440700      -2.92050300      -1.22919000
H       -1.86558200      -1.72947100       0.16875700
H        0.62155900      -1.97653700      -1.61299800
H        1.54214800      -0.86801200       0.44793000
H       -0.06073500      -0.34169500       1.99475300
H        0.21231100       1.93870900       1.95537800
H       -1.32338100       1.92500500       1.08561700
H        0.53755800       2.88867500      -0.56061400
H        1.48908700       0.75915700      -1.71903400
