19
Properties=species:S:1:pos:R:3 pbc="F F F"
N        0.04546100      -1.63063600       1.74681300
C       -0.91085100      -1.10123100       0.76887400
C       -0.21275700      -0.22036800      -0.27296500
C        0.84992900      -0.93644000      -1.09298300
C       -1.05877600       0.83156200      -0.96114500
C       -0.04582600       1.25433900       0.05633100
N        1.11264200       2.02619000      -0.36940300
H       -0.42994200      -2.20207500       2.44021500
H        0.52668100      -0.87286600       2.22437800
H       -1.71871500      -0.51550900       1.25818200
H       -1.40434400      -1.95184000       0.27279900
H        0.41103600      -1.74046700      -1.68430800
H        1.60161000      -1.38141000      -0.44257300
H        1.35139700      -0.25433600      -1.77683900
H       -2.11160900       0.89692700      -0.70010500
H       -0.84278100       1.04590700      -2.00311300
H       -0.44216900       1.57747400       1.02642700
H        1.26899900       1.93213200      -1.36878300
H        1.95280600       1.73001200       0.12317300
