20
Properties=species:S:1:pos:R:3 pbc="F F F"
C       -1.06593800       0.99828800       2.18893400
C       -1.52875200       1.00661100       0.74756500
C       -0.71743700       1.68870000      -0.31740500
C       -0.85394300       0.19235900      -0.32357700
C        0.34180400      -0.70439900      -0.03455700
C        1.11818300      -1.06421800      -1.30651900
N        2.23787000      -1.95833000      -0.99947600
H       -1.41959600       1.88645600       2.71224500
H        0.01878400       0.98189500       2.26114500
H       -1.45117300       0.12833300       2.72083700
H       -2.61137300       1.10128200       0.63941500
H        0.24236200       2.10447000      -0.02759100
H       -1.24292700       2.25795200      -1.07847000
H       -1.52549500      -0.20799400      -1.08716800
H        1.01664400      -0.21279300       0.67382100
H        0.00511100      -1.62773800       0.45125000
H        1.45739400      -0.13320100      -1.80813000
H        0.45060500      -1.56985000      -2.01985200
H        2.86683500      -1.52761000      -0.32663800
H        2.76423500      -2.17694700      -1.84117900
