19
Properties=species:S:1:pos:R:3 pbc="F F F"
C       -2.69709200       0.07399300       0.08512200
C       -1.22747200      -0.01101000      -0.32221400
C       -0.37738500      -1.12921200       0.31580800
C        0.56346500      -0.01820200       0.82683800
N       -0.35261000       1.03007200       0.29409700
C        1.98758100       0.02426100       0.25207100
N        1.98863900       0.16946300      -1.20555600
H       -3.25779600      -0.77086900      -0.31153400
H       -3.14996900       0.98773600      -0.29504700
H       -2.80432100       0.07309400       1.16753200
H       -1.15361500      -0.00850900      -1.42776500
H        0.06367700      -1.84371600      -0.38536800
H       -0.88010600      -1.69237100       1.10625800
H        0.63294600       0.01950900       1.93289300
H        0.10893500       1.61451200      -0.40890300
H        2.53755100      -0.88409800       0.58051200
H        2.52512800       0.88118200       0.68444400
H        1.49095800      -0.60090800      -1.64478600
H        2.93982100       0.18871500      -1.56376800
