18
Properties=species:S:1:pos:R:3 pbc="F F F"
C       -2.90315400      -1.68376300      -0.20824400
C       -2.04324100      -0.89759200      -0.85636800
C       -1.14073200       0.10692500      -0.19493200
C        0.33893000      -0.09814300      -0.56386900
C        1.23823500       0.97173300       0.04048400
C        2.67575300       0.70713400       0.33325400
N        1.69648800       0.77668900       1.41813400
H       -3.53565600      -2.38420200      -0.73996800
H       -2.99755800      -1.64927000       0.87088900
H       -1.97157800      -0.96437700      -1.94315800
H       -1.26022900       0.06410900       0.89112100
H       -1.44410600       1.11735500      -0.50420700
H        0.44407800      -0.09124800      -1.65647700
H        0.66874200      -1.08357900      -0.22420600
H        0.97493200       2.00308700      -0.23225400
H        3.39230700       1.52719200       0.25054800
H        3.09385000      -0.28329600       0.14818400
H        1.76504900       1.66964400       1.91063700
