19
Properties=species:S:1:pos:R:3 pbc="F F F"
C        2.05588000       0.23980600       0.52904300
C        1.18124800       1.02066500      -0.44607100
C       -0.10772900       0.31623300      -0.92573600
N       -0.03622900      -1.16265400      -1.09811500
C       -0.94388300      -1.39238600       0.04711600
C       -1.26929600       0.12459900       0.08856400
N       -1.20664700       0.84488300       1.36101900
H        2.89545400       0.85122400       0.85381800
H        2.46518700      -0.65713800       0.06761200
H        1.50682400      -0.06733600       1.41671600
H        1.78713800       1.27197500      -1.32416600
H        0.89779500       1.97588600       0.00797300
H       -0.43092400       0.82090900      -1.85960300
H        0.89845100      -1.55676200      -0.97426800
H       -0.42781000      -1.76345800       0.94817800
H       -1.77753000      -2.07921900      -0.17334600
H       -2.24418600       0.34373500      -0.37777500
H       -0.35903700       0.61688400       1.87420700
H       -2.00854800       0.61420300       1.94282200
