20
Properties=species:S:1:pos:R:3 pbc="F F F"
C       -3.22703000       0.23566100      -0.18267200
C       -1.74132600       0.09418100      -0.29840200
C       -0.87091600       1.01365600       0.13763400
C        0.63141500       0.95509400       0.02899300
C        1.25656900      -0.44472500      -0.22463400
N        2.69596800      -0.33412400      -0.54080600
C        1.07162800      -1.37921900       0.97483800
H       -3.69919000       0.20110700      -1.16602200
H       -3.50339000       1.17313100       0.29460900
H       -3.65306700      -0.58311800       0.39994000
H       -1.38478200      -0.82126400      -0.76889500
H       -1.26411900       1.92287700       0.59570200
H        1.06596900       1.38228200       0.94173200
H        0.94801900       1.63055400      -0.78010100
H        0.76452900      -0.89554600      -1.10578500
H        3.20723000       0.03792000       0.25610800
H        2.84052700       0.28761000      -1.33273300
H        1.57090800      -0.98076700       1.85659800
H        1.49504100      -2.35902800       0.76633000
H        0.01849800      -1.50478100       1.21362600
