18
Properties=species:S:1:pos:R:3 pbc="F F F"
C        2.47155100       0.22428100      -1.02416800
C        1.35653400       0.85963800      -0.20307900
C       -0.04241000       0.28185400      -0.53119300
N       -0.19108700      -1.13972300      -0.11690800
C       -1.29895300      -1.25242300       0.85032000
C       -1.85942400       0.13629500       0.95217900
C       -1.16603700       0.98842900       0.19328400
H        3.43768200       0.65227600      -0.76356400
H        2.31088600       0.38255500      -2.08890700
H        2.52624300      -0.84940100      -0.85405300
H        1.34375700       1.93937900      -0.38661600
H        1.56510400       0.73033700       0.86403700
H       -0.18845100       0.37495300      -1.63328100
H        0.67929300      -1.51026400       0.26525500
H       -0.94910000      -1.63145100       1.82955700
H       -2.06638800      -1.97728200       0.50961700
H       -2.72052900       0.38822200       1.56389800
H       -1.36845100       2.05029300       0.08835500
