20
Properties=species:S:1:pos:R:3 pbc="F F F"
C       -0.70844100      -0.28767400       2.05791500
C       -1.17808600       0.65714800       0.95729200
C       -0.78287200       0.27552100      -0.48320400
C       -0.63466400      -1.21797900      -0.84283200
N        0.81970800      -1.05026100      -1.03361600
C        0.70094400       0.42791300      -0.93374300
C        1.72821300       1.11182000      -0.03387200
H       -0.93413700       0.13319200       3.03614600
H        0.36237100      -0.46665900       2.00705900
H       -1.20901300      -1.25134400       1.99161800
H       -0.80260400       1.66643400       1.16305700
H       -2.27109000       0.73113600       1.00702000
H       -1.46547900       0.80726400      -1.16397700
H       -1.17155700      -1.50370500      -1.76385800
H       -0.89801100      -1.95122000      -0.06472700
H        1.16975900      -1.38437000      -1.93440900
H        0.74630300       0.90522400      -1.93639900
H        1.77173600       0.65736700       0.95227900
H        1.49228300       2.16753900       0.08762300
H        2.72092100       1.04046800      -0.47545300
