17
Properties=species:S:1:pos:R:3 pbc="F F F"
C        0.61695500       1.16800000       2.37477300
C        0.53792900       1.24411200       0.86583000
C        1.65205200       0.71568000       0.02003900
C        0.32872600      -0.01140200       0.04805900
C       -0.55888800       0.04663400      -1.15751500
N       -1.33196100      -0.88129700      -1.63142900
N       -1.42711600      -2.10778800      -0.96476300
H        1.17176500       2.01422900       2.77993300
H        1.11651300       0.25683300       2.69663400
H       -0.37665500       1.18236900       2.82176400
H        0.04120500       2.13898200       0.48612100
H        2.49318500       0.24324100       0.51791300
H        1.90991400       1.26019600      -0.88332000
H        0.32120300      -0.94146900       0.61598100
H       -0.55436300       0.99802400      -1.70693900
H       -1.68502200      -2.84815900      -1.61814300
H       -0.58485100      -2.35879200      -0.44371900
