20
Properties=species:S:1:pos:R:3 pbc="F F F"
C       -2.00069500       0.12828000      -0.88027900
C       -1.78905300       0.21599700       0.62618200
C       -0.33309600       0.07098600       1.10351900
C        0.49677000      -1.13066800       0.60550700
C        1.49445400      -0.10711000       0.02350200
N        0.65209700       1.02766500       0.51394600
C        1.72208400      -0.13783500      -1.48431300
H       -3.05178100       0.26541200      -1.12558300
H       -1.69248700      -0.83941900      -1.27079700
H       -1.43499400       0.89594500      -1.40530800
H       -2.39310700      -0.55415400       1.11908500
H       -2.17296500       1.17795600       0.98385800
H       -0.33592900       0.14884100       2.21004200
H        0.00126100      -1.75910100      -0.13829300
H        0.89456200      -1.77934400       1.39076300
H        2.47615300      -0.12225500       0.53682800
H        0.25149700       1.57041800      -0.25570000
H        0.77933000      -0.14179300      -2.02864900
H        2.27978900      -1.02704600      -1.77309800
H        2.29120300       0.73298900      -1.80547700
