17
Properties=species:S:1:pos:R:3 pbc="F F F"
N       -2.01981500       0.31392200       0.61966000
C       -0.82062800       0.32305400       0.12068600
N       -0.12746600       1.43879400      -0.31442000
C        1.12917800       1.11016800      -0.96316900
C        1.41289600      -0.33195000      -0.51366800
C        0.04407400      -0.90916900      -0.09008000
C        0.09570600      -1.83970000       1.12186300
H       -2.44036100       1.24612000       0.65746400
H       -0.59625000       2.32032600      -0.49792100
H        1.93120800       1.80593200      -0.66531700
H        1.04790300       1.18410100      -2.06605800
H        2.10218000      -0.32902300       0.33612600
H        1.88859700      -0.91902900      -1.30280100
H       -0.38644400      -1.47267700      -0.93438500
H        0.55878400      -1.34646700       1.97427600
H        0.66870400      -2.73872400       0.90012500
H       -0.91071500      -2.13398600       1.40801700
