18
Properties=species:S:1:pos:R:3 pbc="F F F"
C        0.35670400       0.24656600       2.60110000
C        0.26420100       0.46143900       1.10456700
C        1.48368700       0.71247400       0.27541700
N        0.80798200      -0.58734600       0.23387500
C        0.05551300      -0.96244300      -0.98523700
C       -0.82209100       0.10586400      -1.59633300
C       -2.10351300      -0.07856800      -1.91611200
H        0.34240900       1.19721100       3.13431600
H        1.27465200      -0.27411600       2.86294300
H       -0.48189200      -0.34682700       2.96424300
H       -0.66181100       0.94127400       0.76209600
H        2.46953000       0.70221400       0.74533300
H        1.40612200       1.36421400      -0.59785000
H       -0.55525200      -1.84708900      -0.74944300
H        0.79283200      -1.28948800      -1.73922300
H       -0.35531200       1.06678400      -1.81666400
H       -2.60546800      -1.01986800      -1.72068800
H       -2.68869800       0.70512400      -2.38258700
