20
Properties=species:S:1:pos:R:3 pbc="F F F"
C       -3.01571400       1.39110600       0.60446000
C       -1.49579800       1.34510400       0.51296400
C       -0.96029000      -0.07240300       0.26733700
C        0.56084400      -0.11658900       0.20084000
N        1.19464300       0.21778400      -1.08261200
C        1.28374500      -1.16339200      -0.58559300
C        2.62741500      -1.69569000      -0.13353000
H       -3.36384800       2.40675900       0.78144000
H       -3.37876300       0.76588900       1.41819400
H       -3.47373800       1.03547500      -0.31639900
H       -1.06196600       1.74282900       1.43741900
H       -1.15677000       2.00243900      -0.29340000
H       -1.37596900      -0.46484300      -0.66546700
H       -1.31018900      -0.73696100       1.06778100
H        1.07358000       0.26882000       1.09265700
H        2.07822700       0.70923500      -0.92839100
H        0.67915900      -1.87462600      -1.16078500
H        3.17791900      -0.94613600       0.43189900
H        3.23997900      -1.98811400      -0.98619000
H        2.50867100      -2.57407200       0.50065200
