20
Properties=species:S:1:pos:R:3 pbc="F F F"
C       -1.56849800       2.19982800      -0.42973100
C       -1.80324300       1.20403300       0.69862400
C       -1.23296400      -0.19231800       0.40765300
C        0.28966300      -0.22674000       0.34607700
N        0.93254200      -0.02054800      -0.95965200
C        1.01548400      -1.34663900      -0.32963800
C        2.35436900      -1.83602100       0.18156200
H       -1.97998400       3.17509600      -0.17633500
H       -2.04224500       1.86346900      -1.34940000
H       -0.50691300       2.32103700      -0.62936000
H       -2.87933200       1.11476300       0.88558000
H       -1.36266700       1.58954300       1.62529400
H       -1.64128900      -0.56890900      -0.53457000
H       -1.57414000      -0.88004700       1.19291500
H        0.79716900       0.24137800       1.20049200
H        1.81632200       0.48183200      -0.84701800
H        0.41267600      -2.10931700      -0.83681600
H        2.91084200      -1.03303700       0.66152900
H        2.96570000      -2.22750300      -0.63144400
H        2.22720800      -2.63732600       0.90941600
