12
Properties=species:S:1:pos:R:3 pbc="F F F"
C       -1.32799700       0.59066300      -1.76367400
C       -0.36025500      -0.24052600      -1.38299000
C       -0.01217000      -0.57287800       0.06215200
C       -0.77483300       0.23148600       1.03572500
N       -1.38877500       0.83543500       1.79764300
C        1.43874500      -0.45657800       0.30759800
C        2.62994500      -0.39024700       0.49087700
H       -1.52998600       0.76137200      -2.81422800
H       -1.93833400       1.12410100      -1.04397300
H        0.24259800      -0.75796500      -2.12805900
H       -0.28891400      -1.63319600       0.23798200
H        3.67545500      -0.31387200       0.66664200
