18
Properties=species:S:1:pos:R:3 pbc="F F F"
C        0.76420800       0.46235100       2.02702800
C       -0.29781500       0.12704400       0.97427600
C       -0.51202800       1.28204500      -0.04550300
C        0.29062700       0.88360300      -1.29097200
C        0.43154000      -0.62671200      -1.18351800
N        0.12978600      -1.06804400       0.18764000
C       -0.80191400      -1.41608200      -0.89787600
H        0.46156300       1.32092400       2.62410200
H        1.71804900       0.69735100       1.55948400
H        0.92028200      -0.37859300       2.69951100
H       -1.24413100      -0.10778400       1.49592500
H       -0.19491100       2.24777400       0.35593800
H       -1.57381700       1.37995400      -0.29270100
H        1.28055500       1.35320000      -1.28540100
H       -0.20096700       1.19846600      -2.21803900
H        1.27744100      -1.11422500      -1.67963600
H       -1.77200000      -0.91666300      -0.92226500
H       -0.82826800      -2.47758600      -1.15100100
