15
Properties=species:S:1:pos:R:3 pbc="F F F"
C       -1.80112300       1.69391500      -0.71735400
C       -0.28074200       1.53460600      -0.74295300
C        0.20407900       0.27390500      -0.07920100
C        1.06679000       0.06581500       0.98771600
N        1.22008500      -1.28246900       1.22437300
C        0.45730100      -1.89305000       0.30950700
N       -0.17204400      -0.98483400      -0.49627500
H       -2.09802400       2.62376000      -1.19745000
H       -2.17525400       1.70779500       0.30347300
H       -2.29282700       0.87592400      -1.24143900
H        0.18171200       2.39123300      -0.24496900
H        0.06194900       1.56630100      -1.78733100
H        1.57403400       0.81471300       1.58571400
H        0.33704700      -2.96713300       0.19973700
H       -0.80276000      -1.19261900      -1.26070700
