20
Properties=species:S:1:pos:R:3 pbc="F F F"
C       -2.59036200       1.65222000       1.03853800
C       -1.08214700       1.48618800       1.17672200
C       -0.51621600       0.41692900       0.23517700
C        1.00238600       0.27437900       0.36705200
C        1.60948100      -0.84367500      -0.47411200
C        1.11389400      -1.22675800      -1.82687800
N        0.84705600      -2.07921400      -0.66759500
H       -2.96230700       2.41188500       1.72299800
H       -3.10869900       0.72090300       1.25726200
H       -2.85936800       1.95138800       0.02746600
H       -0.83704300       1.22765700       2.21270600
H       -0.59100400       2.44546000       0.97806800
H       -0.77588500       0.67023600      -0.79833500
H       -0.98826500      -0.54744700       0.44369600
H        1.25723300       0.09614300       1.41967300
H        1.48745100       1.22300100       0.10198700
H        2.68803400      -0.97847800      -0.30763400
H        1.83329100      -1.59432600      -2.56236300
H        0.24011600      -0.73424600      -2.25473700
H        1.46483700      -2.89337700      -0.66661300
