18
Properties=species:S:1:pos:R:3 pbc="F F F"
C       -0.04370900       1.17982100       2.25849800
C        1.00368400       0.46492300       1.40600000
C        0.39267600      -0.35246000       0.28353300
C        0.43493500      -1.69444600       0.30180600
C       -0.24288900       0.42962300      -0.82714000
C       -0.15825700      -0.03272900      -2.24971400
N       -1.41999300      -0.10660500      -1.53074000
H        0.43523000       1.76635100       3.04000200
H       -0.71073600       0.46463700       2.73413800
H       -0.64999300       1.85300100       1.65595900
H        1.60903700      -0.18440000       2.04510100
H        1.68456700       1.21153000       0.97783700
H        0.90068000      -2.22758700       1.12073500
H        0.00448000      -2.28746900      -0.49693600
H       -0.28701000       1.51147700      -0.65988500
H        0.35898700      -0.97085400      -2.46211300
H       -0.11692600       0.70666400      -3.05212100
H       -1.60700400      -1.06550700      -1.22544200
