18
Properties=species:S:1:pos:R:3 pbc="F F F"
C       -1.13643600       0.96717400       1.43321000
C        0.35848100       0.79756400       1.25014100
N        1.01409700       1.50418500       0.14434700
C        1.04330100       0.03462500       0.15517400
C        0.43903500      -0.74591500      -0.99513900
C       -0.47453700      -1.91500400      -0.76499600
C       -0.98604400      -0.68672700      -1.44831800
H       -1.33467900       1.68551100       2.22827500
H       -1.61775300       0.03014800       1.71348800
H       -1.60977200       1.34133600       0.53048300
H        0.91321100       0.81044900       2.20025600
H        1.91407900       1.89415500       0.43257100
H        2.01543200      -0.38897100       0.45544800
H        1.15979400      -0.89157600      -1.80464500
H       -0.81603400      -2.10327300       0.24790700
H       -0.32784100      -2.81043300      -1.36121600
H       -1.69182500      -0.06167600      -0.91596000
H       -1.16608400      -0.74525800      -2.51746900
