15
Properties=species:S:1:pos:R:3 pbc="F F F"
C       -0.86379300      -0.52879600      -1.68229600
C       -0.95183700      -0.61288600      -0.16601200
C       -0.02151500      -1.60681000       0.55868100
N        0.43780900      -0.53866500       1.47391100
C       -0.26789900       0.50217600       0.67995200
C        0.63569200       1.40832600      -0.04342200
N        1.36043200       2.11885300      -0.58776000
H       -1.26373100      -1.43279100      -2.13901900
H        0.16549700      -0.41124400      -2.01436000
H       -1.43613500       0.31766900      -2.05788700
H       -2.00021900      -0.73986900       0.13801000
H        0.78097400      -2.01300800      -0.07561700
H       -0.51187000      -2.44821200       1.07233400
H        1.45376200      -0.42173800       1.50147300
H       -0.95985600       1.11582400       1.29059100
