19
Properties=species:S:1:pos:R:3 pbc="F F F"
C        0.29268800      -0.05036100      -1.77340500
C        0.10685000      -0.14992200      -0.24999800
C       -1.39774000      -0.22820900       0.14389800
N       -2.17894800       0.96045400      -0.21754700
C        0.92400000       0.87059600       0.59002800
C        1.57122100      -0.33171100       1.28508000
N        0.90417600      -1.27134100       0.35727500
H        1.34840800      -0.04644500      -2.03410500
H       -0.15383300       0.86342600      -2.16279900
H       -0.17475900      -0.89492800      -2.27681600
H       -1.85510900      -1.10473900      -0.33568700
H       -1.47895800      -0.38238200       1.22960500
H       -2.19701000       1.08360600      -1.22682400
H       -1.77122800       1.79447100       0.19888000
H        0.33716100       1.53116100       1.23471500
H        1.61760800       1.48330800       0.00914600
H        1.27023000      -0.46153200       2.33720700
H        2.67108900      -0.38021200       1.24378100
H        0.32769100      -1.97188700       0.83118500
