18
Properties=species:S:1:pos:R:3 pbc="F F F"
C       -3.24608000      -0.60792900      -1.11998400
C       -1.78925300      -0.59143900      -1.07650700
C       -0.58035500      -0.57913800      -1.03424500
C        0.88694700      -0.57020600      -1.00843200
C        1.47674000       0.49987100      -0.07760700
C        1.10428600       0.28220000       1.39125500
N        1.70932600       1.31134300       2.24036500
H       -3.64145700      -1.46771200      -0.57579700
H       -3.60372400      -0.66705200      -2.14962300
H       -3.65896200       0.29674400      -0.66986800
H        1.25912300      -0.41073100      -2.02994700
H        1.24590400      -1.56350600      -0.70300900
H        1.14190200       1.49137100      -0.39530200
H        2.56816200       0.49351100      -0.18243800
H        1.40927600      -0.74113100       1.69977200
H        0.01304700       0.32634800       1.50671000
H        2.72250600       1.30124400       2.15452400
H        1.46522700       1.16136200       3.21554600
