15
Properties=species:S:1:pos:R:3 pbc="F F F"
C        1.37413600       1.44429000      -0.13252100
C       -0.13197200       1.62882200      -0.26019700
C       -0.91677100       0.41370800      -0.75740900
N       -0.26900400      -0.72695400      -1.39837900
C       -0.89721700      -0.93045100      -0.08130600
C       -0.05020600      -1.19810500       1.06743400
N        0.59206100      -1.45085200       1.99112300
H        1.82724700       2.35572100       0.25009200
H        1.82914000       1.22924500      -1.09748600
H        1.62374300       0.63569500       0.54973300
H       -0.32863400       2.45813200      -0.94906300
H       -0.54309400       1.94386000       0.70651200
H       -1.87588000       0.67860100      -1.22095500
H        0.74855300      -0.66929200      -1.30296000
H       -1.81029400      -1.53689500      -0.10108300
