20
Properties=species:S:1:pos:R:3 pbc="F F F"
C        0.59168100      -2.70131500       0.80037700
C        0.72738900      -1.64946200      -0.29366700
C       -0.41113800      -0.62097800      -0.27321200
C       -0.45394000       0.37449400       0.90769100
C       -0.63070600       1.53324400      -0.11467200
C       -0.31040300       0.55928100      -1.26292200
N        0.24341400       2.70294100      -0.00390800
H        1.41883000      -3.40757500       0.76667100
H       -0.33370600      -3.26323200       0.68962100
H        0.58466500      -2.24070400       1.78618100
H        0.74837200      -2.14229100      -1.27231200
H        1.68841300      -1.13452000      -0.18791400
H       -1.37273300      -1.14388300      -0.37822300
H        0.49043800       0.42746500       1.45428000
H       -1.26192400       0.23115400       1.63037500
H       -1.67645600       1.88184300      -0.15033700
H        0.69752500       0.69523000      -1.66163100
H       -1.01064600       0.54820100      -2.10287600
H        1.21948800       2.41974400       0.03738900
H        0.02653500       3.23640300       0.83456600
