17
Properties=species:S:1:pos:R:3 pbc="F F F"
C       -2.03427300       1.24183600       0.54632900
C       -0.52867700       1.12964700       0.44398700
C        0.19427100       1.73325400      -0.73004600
C        0.10556400       0.24349800      -0.59869800
N        1.32943900      -0.47438500      -0.27694500
N        1.26905200      -1.80465000       0.07446600
C        0.16444000      -2.31171500       0.52278600
H       -2.32854100       2.19394000       0.98740400
H       -2.44430700       0.44921800       1.17174600
H       -2.49944100       1.16921900      -0.43455300
H       -0.00276500       1.18907700       1.39701300
H        1.15634000       2.20273000      -0.54873400
H       -0.40075700       2.21018000      -1.50238300
H       -0.57695300      -0.27770200      -1.28884300
H        2.10367000      -0.29135400      -0.92472800
H        0.17157200      -3.35786300       0.83011400
H       -0.77620500      -1.75332400       0.62416800
