18
Properties=species:S:1:pos:R:3 pbc="F F F"
C        0.59930200       0.60068700       2.84108900
C        0.33571900       0.63291700       1.36879700
C       -0.76013400       0.11693200       0.79219500
C       -1.08163800       0.12207000      -0.66402700
N       -0.23623800       0.82084200      -1.64321100
C       -0.28009500      -0.64306300      -1.68717900
C        0.95189800      -1.44110600      -1.32379600
H        1.53150400       0.07631700       3.05993800
H       -0.20490700       0.10492400       3.37997200
H        0.70547800       1.61119700       3.24001300
H        1.09758000       1.11646800       0.75650800
H       -1.51570300      -0.34605900       1.42868600
H       -2.15541200       0.21130600      -0.87347300
H        0.63100900       1.13842800      -1.20261600
H       -0.83774400      -1.03783700      -2.54630300
H        1.42278200      -1.05703600      -0.42138700
H        1.68771100      -1.40644400      -2.12743700
H        0.70104800      -2.48777600      -1.15389200
