18
Properties=species:S:1:pos:R:3 pbc="F F F"
C       -2.68780400       0.18305100      -0.48602600
C       -1.23278000       0.52375600      -0.30085800
C       -0.74189800       1.70956100      -0.68738700
C       -0.39304800      -0.56581900       0.33323200
C        1.04315100      -0.18100000       0.65489200
C        2.15104400      -0.40054600      -0.31740800
N        1.99270500      -1.28228700       0.83984900
H       -3.23124500       0.99808300      -0.95704300
H       -3.16014600      -0.03529600       0.47266400
H       -2.80125400      -0.70810600      -1.10452600
H       -1.38149800       2.45453100      -1.14417000
H        0.30308700       1.96185000      -0.56090900
H       -0.39160900      -1.44109300      -0.32811700
H       -0.89456600      -0.90043800       1.25226100
H        1.15435600       0.66484600       1.34554700
H        3.00260200       0.28314700      -0.31243200
H        1.94082700      -0.86029400      -1.28375700
H        2.67852600      -1.05523400       1.56288200
