15
Properties=species:S:1:pos:R:3 pbc="F F F"
N       -2.03847500      -0.33636700       0.37438900
C       -0.80217500      -0.30760500      -0.02212000
N       -0.07356800      -1.38556600      -0.51394500
C        1.23210300      -0.98684000      -0.82016600
C        1.40781100       0.32838800      -0.57190200
C        0.10704800       0.91282900      -0.05041200
C        0.21663900       1.62499000       1.30449900
H       -2.46113800      -1.26548400       0.29335600
H       -0.41567500      -2.33683400      -0.57693200
H        1.94286400      -1.71067000      -1.20576000
H        2.32217700       0.88456500      -0.72500800
H       -0.29767900       1.64076100      -0.77662100
H        0.63046400       0.96365700       2.06232100
H       -0.76673100       1.94840300       1.63699600
H        0.86146500       2.49855700       1.22914800
