18
Properties=species:S:1:pos:R:3 pbc="F F F"
N        0.21652400      -0.33104000       2.81754400
C       -0.11968500       0.14628800       1.82539600
C       -0.55605600       0.76349800       0.57437300
C       -0.01775400       0.03216900      -0.69666100
C       -0.51341900      -1.42875300      -0.70393900
C       -0.55191700       0.76836600      -1.94428300
C        1.52472900       0.06108500      -0.69727000
H       -0.22511700       1.80891600       0.56909600
H       -1.65240200       0.77730900       0.55851600
H       -1.60074700      -1.47057800      -0.70381100
H       -0.15338900      -1.96370500       0.17158200
H       -0.15622300      -1.94963700      -1.58950600
H       -1.63975300       0.76128900      -1.96636300
H       -0.19476400       0.28997700      -2.85299700
H       -0.22118600       1.80486800      -1.95814500
H        1.92160300      -0.45039000       0.17635100
H        1.89454100       1.08442700      -0.68853300
H        1.91638200      -0.43111900      -1.58468900
