20
Properties=species:S:1:pos:R:3 pbc="F F F"
C       -1.15289600       1.95009900      -0.92736300
C       -1.39289400       0.46602500      -1.17433200
N       -0.87257900      -0.35006100      -0.06191400
C       -0.51909100      -1.73461400      -0.39079200
C        0.54639500      -0.71880200      -0.12862100
C        1.34077800      -0.72087900       1.17234100
C        1.87987900       0.65827600       1.53740800
H       -1.55854000       2.54823000      -1.74096800
H       -0.08867000       2.16523600      -0.84948300
H       -1.62519100       2.27312800      -0.00224400
H       -0.93832400       0.17096000      -2.14225300
H       -2.47378000       0.27615400      -1.26704800
H       -0.68294500      -2.06595700      -1.41986700
H       -0.76758500      -2.47472300       0.37249000
H        1.09619600      -0.35648700      -1.00914700
H        2.17710000      -1.42622000       1.08591200
H        0.70499100      -1.09155500       1.98196000
H        2.54230000       1.03872400       0.76183800
H        2.44150100       0.62115700       2.46875400
H        1.06797400       1.37113900       1.66159700
