19
Properties=species:S:1:pos:R:3 pbc="F F F"
N        1.66273800       2.16443200       0.33116100
C        0.99471600       1.38886500      -0.71842200
C       -0.08678900       0.49443600      -0.12577300
C       -0.55567900      -0.74142600      -0.83434000
N        0.32057500      -0.83928400       0.34891600
C       -0.25377100      -1.30972300       1.60999200
C       -2.00306200      -1.18942300      -0.79825600
H        2.42086600       2.71795100      -0.05960700
H        2.04639700       1.54130100       1.03733800
H        1.70939200       0.76663500      -1.29565200
H        0.54436600       2.09047200      -1.43960200
H       -0.82986500       1.01020100       0.49708000
H       -0.03526500      -1.00868800      -1.76475700
H       -0.39395700      -2.39396100       1.57221300
H       -1.22104600      -0.84565700       1.85839000
H        0.43875000      -1.09134800       2.42985700
H       -2.53172500      -0.79081900       0.06438800
H       -2.07726900      -2.27661500      -0.76672000
H       -2.52631900      -0.85187600      -1.69268600
