14
Properties=species:S:1:pos:R:3 pbc="F F F"
N        1.95276000       0.82991600      -1.92189000
C        1.49560800       0.32203000      -0.99673700
C        0.94674700      -0.34687700       0.20118000
C       -0.53055300      -0.34093600       0.17718700
C       -1.73961600      -0.35204700       0.18180000
C       -3.19604200      -0.35544000       0.17580000
C        1.50232100       0.29195900       1.48612400
H        1.28612700      -1.39954100       0.15908700
H       -3.58415200      -1.08841900       0.88500300
H       -3.57707000      -0.60545200      -0.81550000
H       -3.58501200       0.62566600       0.45287500
H        1.20414900       1.33448100       1.56250100
H        2.58908000       0.24585700       1.49667500
H        1.12676400      -0.23414200       2.36046300
