20
Properties=species:S:1:pos:R:3 pbc="F F F"
N       -1.33466600      -0.49394200       2.48958100
C       -1.46728100      -1.31099000       1.28038200
C       -1.03019800      -0.54185600       0.02882500
C        0.44047000      -0.12315000       0.08640400
C        0.96101300       0.63552900      -1.11541900
C        0.21562700       0.96636300      -2.17926300
C        2.41849300       1.01009300      -1.04280300
H       -1.65223300      -1.00925800       3.30625300
H       -1.88525000       0.35709200       2.40880700
H       -2.51053300      -1.66627000       1.13738600
H       -0.84977100      -2.21370800       1.39891900
H       -1.66246100       0.34488800      -0.08954700
H       -1.20545900      -1.16902700      -0.85150500
H        1.06632400      -1.01391100       0.23188200
H        0.60408400       0.48695100       0.98340100
H       -0.83230300       0.70592000      -2.24884000
H        0.64678000       1.51140000      -3.00993800
H        3.04317200       0.12049500      -0.95129200
H        2.61682500       1.62739700      -0.16579400
H        2.73473500       1.55970300      -1.92555900
