18
Properties=species:S:1:pos:R:3 pbc="F F F"
C       -0.00377900       0.21605600       2.80755900
C       -0.44155900       0.09268700       1.54991300
C        0.45736800       0.02861400       0.37216500
C        0.05509300       0.65043100      -0.94598200
N        0.12884700      -0.80231300      -0.81394000
C       -1.13037400      -1.54793600      -0.82754000
C        1.07330500       1.33756600      -1.83131300
H       -0.69359600       0.26919400       3.64020800
H        1.05520000       0.26456400       3.03388500
H       -1.51411900       0.05182100       1.36160500
H        1.52788800       0.02411500       0.61133200
H       -0.95837500       1.07555900      -0.98679700
H       -1.31209500      -1.93094400      -1.83731900
H       -2.00657600      -0.94619900      -0.53862400
H       -1.06213500      -2.40449800      -0.15178200
H        2.04768100       0.86186000      -1.74750100
H        1.18391800       2.38682500      -1.55854900
H        0.76995000       1.29938300      -2.87769100
