15
Properties=species:S:1:pos:R:3 pbc="F F F"
C       -1.62787400      -0.55229700      -0.82797000
C       -0.12508900      -0.42415100      -1.03316200
C        0.74625500      -1.56150700      -0.45874000
N        1.30130100      -0.64792900       0.56153600
C        0.64075600       0.52314700      -0.06216400
C       -0.15217000       1.35456500       0.85916800
N       -0.77666400       2.03306800       1.54819100
H       -2.03004300      -1.35701600      -1.44160300
H       -2.13728900       0.36904200      -1.10461100
H       -1.86427800      -0.76955500       0.21103200
H        0.08828800      -0.20145400      -2.08857200
H        1.50017600      -1.95096400      -1.16152900
H        0.20404900      -2.41804000      -0.03021500
H        2.32243400      -0.59520300       0.57656200
H        1.35292900       1.18867700      -0.59194500
