20
Properties=species:S:1:pos:R:3 pbc="F F F"
C        0.49697100       2.09893600      -0.89606900
C        1.25445000       0.94182800      -1.47664300
C        1.09833900      -0.37014500      -1.24790800
C        0.11854100      -1.13966000      -0.39600200
C       -0.76773500      -0.38482300       0.61220700
N        0.05914000       0.22092900       1.67528500
C       -1.83124000      -1.34029700       1.20078100
H        0.99805200       3.03397300      -1.13693000
H        0.41895800       2.02515400       0.18755500
H       -0.51582000       2.16021600      -1.29931700
H        2.04066200       1.21661000      -2.18092400
H        1.77054500      -1.03394700      -1.79650600
H        0.68174900      -1.91098900       0.14841600
H       -0.53736400      -1.70391900      -1.07581200
H       -1.30282700       0.42885800       0.09156200
H        0.65001300      -0.48504300       2.10798100
H       -0.53329300       0.62678500       2.39576300
H       -1.36536800      -2.17764400       1.71740200
H       -2.47199200      -1.74370700       0.41924000
H       -2.46325400      -0.81788300       1.91638100
