20
Properties=species:S:1:pos:R:3 pbc="F F F"
C        0.12466000       2.64922200       0.31216000
C        0.36758300       1.61248800      -0.77987900
C       -0.70276700       0.52789000      -0.81430800
C       -0.41740100      -0.80922000      -1.43464900
C       -0.64308900      -0.70445100       0.04793300
C        0.49890700      -0.97176100       1.03373100
N        0.61135000      -2.38892300       1.40993900
H        0.89437800       3.41814500       0.29514600
H        0.13123100       2.18960200       1.29830400
H       -0.83907800       3.13733000       0.17992100
H        1.35462700       1.15979600      -0.64520200
H        0.39486600       2.11783400      -1.75308500
H       -1.70826600       0.91717300      -0.99002400
H        0.59617500      -0.99957500      -1.77473700
H       -1.18879000      -1.27029200      -2.04475000
H       -1.61192600      -1.07137600       0.39563200
H        1.45586100      -0.65008000       0.60286100
H        0.34614800      -0.38293600       1.95063800
H        0.78027000      -2.95870600       0.58444400
H       -0.25229500      -2.70946400       1.84135300
