19
Properties=species:S:1:pos:R:3 pbc="F F F"
N       -1.88621800      -0.15456000      -0.95273700
C       -0.41955800      -0.14688700      -0.88065100
C        0.15254900      -1.43608700      -0.26337500
C        1.42711400      -0.99354600       0.48980400
N        1.50890800       0.48203700       0.40468300
C        0.16215200       0.98267300       0.02106500
C       -0.69140100       1.27392500       1.26097100
H       -2.21102900      -0.93665300      -1.51609400
H       -2.22988500       0.70652900      -1.37132900
H        0.02211500      -0.02094600      -1.89994400
H        0.36812900      -2.19283900      -1.02378600
H       -0.57148900      -1.88042600       0.42468900
H        2.33756800      -1.43480700       0.06391100
H        1.38646000      -1.31730300       1.54279700
H        2.17924600       0.73954700      -0.32336600
H        0.28878200       1.91982300      -0.54996700
H       -0.82351900       0.37678600       1.86068100
H       -1.67619500       1.63909300       0.97856700
H       -0.21415000       2.02839100       1.88333200
