19
Properties=species:S:1:pos:R:3 pbc="F F F"
C       -1.26828700      -0.15366400      -1.99291000
C       -0.95316400      -0.34652900      -0.51440500
C        0.12595600      -1.39061200      -0.14756700
C        0.79377100      -0.35223600       0.80229500
C       -0.10167200       0.75610500       0.20428100
N       -0.76963700       1.63877400       1.16223000
N        2.23921300      -0.14393900       0.69876200
H       -1.73194600      -1.04501600      -2.41339700
H       -0.36477200       0.05281200      -2.56440000
H       -1.95348600       0.68004600      -2.13984300
H       -1.88409800      -0.54066600       0.03697100
H        0.76024800      -1.65896700      -0.99553700
H       -0.23844700      -2.31299200       0.31278300
H        0.54213600      -0.55351600       1.85597600
H        0.44904300       1.37475300      -0.52179500
H       -1.30514400       1.10220100       1.84056300
H       -1.39916000       2.28018500       0.68607800
H        2.51148300       0.03952000      -0.26397400
H        2.74749200      -0.96058200       1.02946800
