16
Properties=species:S:1:pos:R:3 pbc="F F F"
C       -2.32590600      -1.38291500      -0.47069300
C       -1.41332900      -0.51401300      -0.03585100
C       -0.51017500      -0.76600200       1.14138300
C        0.99077700      -0.64333800       0.82329500
C        1.47141000       0.79169200       0.54810400
C        1.09790000       1.30661300      -0.76924800
N        0.83878200       1.73288900      -1.80654200
H       -2.96177200      -1.15102700      -1.31592800
H       -2.46113700      -2.34812800       0.00424200
H       -1.30475600       0.44572600      -0.53851400
H       -0.70146300      -1.76711800       1.54027500
H       -0.75836200      -0.05812100       1.94431700
H        1.24650300      -1.28416600      -0.02478600
H        1.55535100      -1.02455600       1.68109500
H        2.56547500       0.82891400       0.61999500
H        1.08463500       1.47602900       1.31315300
