20
Properties=species:S:1:pos:R:3 pbc="F F F"
C       -2.02646100       0.34088700       0.62622700
C       -0.50022700       0.24007200       0.48574500
C       -0.13003400      -0.63536800      -0.71861000
C       -0.17739700      -2.12280500      -0.63725000
N        1.10584900      -1.41801800      -0.64370000
C        0.12681900       1.65109000       0.38489800
C        1.64821700       1.64640600       0.45159300
H       -2.47379400      -0.64581800       0.73120500
H       -2.47130700       0.81653000      -0.24641600
H       -2.29985600       0.92850500       1.50048400
H       -0.10514000      -0.24794200       1.38890200
H       -0.35798900      -0.19304000      -1.69824000
H       -0.43821500      -2.69533400      -1.52999800
H       -0.43558800      -2.60744000       0.30550800
H        1.55004100      -1.48715000      -1.56171500
H       -0.26823300       2.27112500       1.19752300
H       -0.19875900       2.12627100      -0.54762700
H        1.99615300       1.20928500       1.38521100
H        2.03954400       2.66033700       0.38928200
H        2.07669200       1.06910100      -0.36383800
