20
Properties=species:S:1:pos:R:3 pbc="F F F"
C       -0.79190000       0.54706000       1.78395300
C       -0.96001200       0.13061700       0.31878600
C        0.37446200       0.13498200      -0.46743000
C        0.21419800       0.13277900      -1.98359500
C        1.60345300      -0.49586300       0.10713300
N        1.46282500       0.96400900       0.07508200
C       -1.65784300      -1.23523100       0.21836700
H       -1.76279700       0.61754800       2.27079200
H       -0.30106200       1.51386200       1.85573300
H       -0.19490500      -0.17568800       2.33598000
H       -1.61804300       0.87380300      -0.16309800
H        1.18224000       0.14649200      -2.48085600
H       -0.34690300       1.00587500      -2.31732300
H       -0.32405100      -0.75045800      -2.32666600
H        2.33638200      -0.93792500      -0.57135600
H        1.57960800      -0.94139100       1.10239500
H        2.02567400       1.36009300      -0.68138500
H       -1.05122500      -2.01891600       0.66829000
H       -1.84449500      -1.51035700      -0.81794000
H       -2.61433800      -1.21706600       0.73658500
