16
Properties=species:S:1:pos:R:3 pbc="F F F"
C       -2.12281000      -0.68159100      -0.30729500
C       -0.60739800      -0.61074700      -0.43388700
C        0.22011400      -1.71434500       0.25830600
C        1.09362900      -0.64652600       0.92559400
C        0.12270400       0.45254000       0.43917300
C        0.70854500       1.59474800      -0.25959300
N        1.17340000       2.48868700      -0.81789500
H       -2.51287800      -1.54259800      -0.84690200
H       -2.58942100       0.21162100      -0.71854400
H       -2.42832000      -0.77261000       0.73373500
H       -0.32849500      -0.50956100      -1.49067500
H        0.74193500      -2.40475300      -0.40843800
H       -0.35983000      -2.30368500       0.97222600
H        2.08988200      -0.56531600       0.48744600
H        1.20138300      -0.72380800       2.01023400
H       -0.51676300       0.82542200       1.25240100
