20
Properties=species:S:1:pos:R:3 pbc="F F F"
C        1.69868900      -0.11094200       1.75636200
C        0.87097200      -0.36874900       0.48857800
C       -0.42757300       0.47065300       0.52726100
C       -0.91874700       1.30326300      -0.63558100
C       -1.67145500       0.06823800      -0.20255800
N       -1.68860300      -1.13231600      -1.02579800
C        1.73174300      -0.13229800      -0.76038700
H        2.58855900      -0.73729500       1.77195000
H        1.11824900      -0.32834300       2.65086400
H        2.02079900       0.92707000       1.81060900
H        0.58716400      -1.43504600       0.49620200
H       -0.60887800       0.92627400       1.50274800
H       -0.36184600       1.25945900      -1.56479300
H       -1.34029800       2.27839000      -0.40963500
H       -2.62061900       0.23010500       0.31899500
H       -0.77138500      -1.30970700      -1.42582500
H       -2.36059600      -1.03844000      -1.78451700
H        2.03766800       0.90882200      -0.83780200
H        1.19700400      -0.39427300      -1.67166000
H        2.63262600      -0.74179400      -0.71859500
