18
Properties=species:S:1:pos:R:3 pbc="F F F"
C       -2.54257100      -1.84898300       0.12774000
C       -1.78290500      -0.69379200      -0.52065700
C       -1.24696300       0.28479600       0.49356900
C        0.00384300       0.76352400       0.57009300
C        1.14671600       0.40893600      -0.31553600
C        2.51489700       0.19398200       0.25967400
N        2.20993400       1.41691600      -0.46966100
H       -2.94977200      -2.51620000      -0.62926300
H       -3.36922700      -1.48140300       0.73238600
H       -1.89111400      -2.43238000       0.77451100
H       -2.46488200      -0.16341200      -1.19997000
H       -0.97635900      -1.08958300      -1.14461400
H       -1.97512800       0.63642000       1.22495800
H        0.23755700       1.47701300       1.35976100
H        0.90850200      -0.17019400      -1.21571700
H        3.17637500      -0.53040300      -0.22172100
H        2.67530900       0.31690500       1.33164900
H        2.60109500       1.38404300      -1.41365800
