15
Properties=species:S:1:pos:R:3 pbc="F F F"
C       -2.41508900       0.10945900       0.00178700
C       -0.91214800       0.10338100       0.00104200
C       -0.17755700       1.23960700       0.01518600
N        1.23152400       1.27568800       0.01582700
C        1.83512300       0.11083900       0.00179100
N        1.20249000      -1.10311900      -0.01348100
C       -0.24475600      -1.25198300      -0.01622700
H       -2.80529300       1.12460400       0.01244000
H       -2.81465800      -0.41668300       0.87298900
H       -2.81592900      -0.39902900      -0.87926000
H       -0.67343700       2.21378300       0.02715700
H        2.93425300       0.06398700       0.00166900
H        1.76362800      -1.94909000      -0.02398500
H       -0.57056900      -1.86840600       0.85615700
H       -0.56953400      -1.84496400      -0.90506500
