18
Properties=species:S:1:pos:R:3 pbc="F F F"
C       -2.43206100       1.42446100       1.01474300
C       -0.96069500       1.07351700       0.95615300
N       -0.19349700       1.55877100      -0.20048200
C       -0.41738000       0.11411900      -0.05470800
C        0.76809700      -0.78854200       0.28275100
C        1.59534400      -1.12734800      -0.92912500
C        1.90344300      -2.36789500      -1.30760100
H       -2.57801300       2.43430400       1.39717100
H       -2.97046100       0.74149100       1.67173300
H       -2.88251800       1.37229800       0.02668700
H       -0.43730400       1.11729100       1.92083800
H        0.75896600       1.80526600       0.07957900
H       -1.11435900      -0.29739200      -0.79343200
H        1.40365000      -0.27874300       1.02018400
H        0.41370100      -1.70978200       0.75964700
H        1.95252300      -0.28112900      -1.51601000
H        1.56024200      -3.23137000      -0.74915900
H        2.50757400      -2.55349800      -2.18714600
