19
Properties=species:S:1:pos:R:3 pbc="F F F"
C       -0.80149400       1.09577100       2.31048000
C       -1.23300800       1.06630000       0.85908500
N       -0.38744700       1.70580200      -0.16297100
C       -0.53970300       0.24166100      -0.17898500
C        0.65836400      -0.64403900       0.14241700
C        1.39785400      -1.10844100      -1.12011500
N        0.54579200      -1.95935800      -1.95337100
H       -1.07946000       2.04095000       2.77647900
H        0.27526700       0.97991400       2.41351500
H       -1.28111100       0.29868100       2.87893400
H       -2.30430300       1.25160000       0.71060400
H        0.51724400       1.96172500       0.24137200
H       -1.14951400      -0.12203700      -1.01355300
H        1.35993500      -0.10907200       0.79141600
H        0.32633500      -1.52675200       0.70510800
H        2.33199700      -1.63032500      -0.81890900
H        1.70808900      -0.23730000      -1.71315900
H        0.25484800      -2.78897300      -1.44258300
H        1.04018100      -2.25103700      -2.79212200
