18
Properties=species:S:1:pos:R:3 pbc="F F F"
C       -1.55524900      -0.12666100      -1.17794000
C       -0.86382700      -0.76597400      -0.00679400
C       -0.99114900      -2.07677600       0.25674200
C       -0.05914600       0.11692700       0.90422700
N        0.06598400       1.54286000       0.57767200
C        1.27324500       0.71702800       0.53427300
C        1.95723000       0.49181400      -0.79604600
H       -2.09968800      -0.86206900      -1.76557000
H       -0.84352700       0.38053100      -1.82876000
H       -2.25888000       0.63095800      -0.83200100
H       -1.58055400      -2.72277400      -0.38111400
H       -0.50731200      -2.52685500       1.11522400
H       -0.17011100      -0.11877000       1.97197700
H        0.04317100       2.11616500       1.42396100
H        1.96865100       0.85836500       1.37436900
H        1.23786700       0.40818500      -1.60559700
H        2.55291200      -0.42031800      -0.77529300
H        2.62895800       1.31840800      -1.02767800
