18
Properties=species:S:1:pos:R:3 pbc="F F F"
C       -2.08188900       0.02947700       0.92323500
C       -0.57214300      -0.00284000       0.75464900
C        0.05130400      -1.03462000      -0.21892500
C        1.54532600      -0.74628800       0.00148700
C        1.46298000       0.80773300      -0.01511500
N       -0.00840700       1.04379400      -0.23392200
C       -0.26879800      -0.00528600      -1.31243300
H       -2.40785000      -0.79182900       1.56092400
H       -2.61407600      -0.05375100      -0.02162900
H       -2.39371200       0.95811700       1.39864900
H       -0.09238200       0.06143400       1.74689900
H       -0.26996700      -2.08477800      -0.27214000
H        2.17792600      -1.14525800      -0.79802500
H        1.92085200      -1.14234700       0.95070200
H        2.04445400       1.25826700      -0.82915900
H        1.78696300       1.26614000       0.92777300
H        0.39764700       0.05907200      -2.18120300
H       -1.31168200       0.01932000      -1.64272900
