17
Properties=species:S:1:pos:R:3 pbc="F F F"
C       -0.46796000       1.26159500       1.59824300
C       -0.93335100       1.11543200       0.16666800
C       -0.13280400       1.72321700      -0.95413600
C       -0.19062700       0.23355400      -0.80788800
N        1.02867800      -0.44527300      -0.39797400
N        0.99368600      -1.78494400      -0.08495700
C       -0.12159600      -2.34594000       0.26145800
H       -0.71922300       2.24494800       1.99608900
H        0.60933700       1.13197600       1.66853200
H       -0.93794400       0.51563300       2.23776300
H       -2.01652100       1.15167700       0.03690700
H        0.79937900       2.21625800      -0.69690000
H       -0.66989200       2.18014100      -1.77973700
H       -0.80478200      -0.31600900      -1.53959400
H        1.84594200      -0.21507400      -0.97366300
H       -0.09635500      -3.39934400       0.54157700
H       -1.08845300      -1.82583500       0.30348300
