20
Properties=species:S:1:pos:R:3 pbc="F F F"
C       -0.98346000       2.98590800      -0.91424500
C       -0.02617100       2.09951600      -1.64765100
C        0.20671800       0.79893900      -1.42401800
C       -0.44820900      -0.07710000      -0.38883300
C        0.56888200      -0.92138300       0.39186400
C       -0.10187000      -1.86172800       1.39677700
N        0.89804300      -2.63790600       2.13371500
H       -0.47305700       3.87393500      -0.53873700
H       -1.45402900       2.48339700      -0.07333900
H       -1.77304100       3.33509800      -1.58266100
H        0.52911100       2.58590200      -2.45032300
H        0.94018000       0.29768900      -2.05693300
H       -1.15669200      -0.75327500      -0.89001400
H       -1.04321400       0.52172600       0.30758300
H        1.26734400      -0.26489400       0.91904500
H        1.17224100      -1.50901800      -0.30997800
H       -0.82445800      -2.51682500       0.86344500
H       -0.69446300      -1.27869700       2.11716300
H        1.47931100      -3.17408500       1.49454300
H        0.44912100      -3.28052100       2.78083300
