19
Properties=species:S:1:pos:R:3 pbc="F F F"
C       -0.70726600       0.05249600      -1.68976100
C       -0.92218900       0.00121200      -0.18197900
C       -0.12894600      -1.11169200       0.59684700
N        0.52163900      -2.19175100      -0.14307200
C        0.80685900      -0.03842900       1.18364700
C       -0.15794000       1.06312100       0.66075400
N        0.40828600       2.20870800      -0.05262600
H       -1.17969800      -0.80046900      -2.17555500
H        0.35072300       0.03781600      -1.94698800
H       -1.13982300       0.95904600      -2.10830800
H       -2.00426300      -0.01263900       0.01863100
H       -0.76588800      -1.56147600       1.37778000
H        1.13208300      -1.81998600      -0.86625500
H       -0.16949200      -2.79580100      -0.58084900
H        1.77768400      -0.01644400       0.68390100
H        0.97795400      -0.07510800       2.26324900
H       -0.79653200       1.44888700       1.47341600
H        1.05313800       1.90226100      -0.77680600
H        0.91153000       2.81496600       0.59063000
