20
Properties=species:S:1:pos:R:3 pbc="F F F"
C       -2.94893000       0.80032500      -0.05012600
C       -1.44655000       0.81796200      -0.08939400
C       -0.68195500      -0.27037900       0.05697100
C        0.85821700      -0.29506200       0.02400600
N        1.44907300       1.04338800      -0.19791900
C        1.37996200      -0.83779600       1.37678700
C        1.31891900      -1.22568300      -1.12424400
H       -3.35532300       1.79236600      -0.22812900
H       -3.31894900       0.45833100       0.91704800
H       -3.36099300       0.12998100      -0.80461600
H       -0.97331700       1.78775200      -0.24604500
H       -1.16307200      -1.23642200       0.21400400
H        1.17634900       1.68042900       0.54670900
H        1.13561600       1.42757700      -1.08606900
H        1.07846000      -0.18748600       2.19524400
H        2.46609900      -0.89205800       1.37212700
H        0.98914800      -1.83344000       1.57419200
H        0.97116500      -0.85312300      -2.08545500
H        0.92888000      -2.23214400      -0.99037900
H        2.40445000      -1.28168700      -1.15720700
