20
Properties=species:S:1:pos:R:3 pbc="F F F"
C       -2.03706300      -0.36679500      -0.98085600
C       -0.52643200      -0.21619900      -1.11305100
C        0.35528800      -1.30908900      -0.47381400
C        1.26161500      -0.22361600       0.13088600
C        0.20890700       0.87208600      -0.27069100
C       -0.57462700       1.50468200       0.87342200
N        1.62176700      -0.40169200       1.53684900
H       -2.38553200      -1.22328800      -1.55602600
H       -2.55201100       0.51724700      -1.35320600
H       -2.33560300      -0.51930400       0.05420100
H       -0.27653800      -0.09269800      -2.17733400
H        0.82884000      -2.01359100      -1.16342100
H       -0.17373300      -1.88345300       0.28982200
H        2.19076800      -0.09731700      -0.45131300
H        0.63307400       1.67577800      -0.89173000
H       -1.01245300       0.75223800       1.52653800
H       -1.38231500       2.12804400       0.49340800
H        0.07489100       2.13481800       1.47985300
H        0.79274500      -0.54589600       2.10780000
H        2.11936900       0.41284900       1.88808600
