14
Properties=species:S:1:pos:R:3 pbc="F F F"
C       -2.52653400      -0.85266600      -0.30220200
C       -1.35412400      -0.21809600      -0.37836100
C       -0.54393600       0.16224300       0.80683600
C        0.24575100       1.44042500       0.80264400
C        0.97461100       0.12986200       0.73730000
C        1.63961100      -0.25581900      -0.49108100
N        2.18631900      -0.56640800      -1.45699800
H       -3.08199900      -1.10951500      -1.19481100
H       -2.95799500      -1.13114800       0.65233100
H       -0.94138200       0.04967400      -1.35027100
H       -0.96429300      -0.13385700       1.76898000
H        0.30963100       2.00229500       1.72956400
H        0.22326400       2.04671600      -0.09675900
H        1.49626600      -0.19500700       1.63913900
