16
Properties=species:S:1:pos:R:3 pbc="F F F"
C       -2.86164800       0.76701600       1.15727600
C       -1.38155600       0.98014100       1.15334200
C       -0.55941200       0.52525300       0.19994600
C        0.92739000       0.76412400       0.19064900
C        1.74281600      -0.53443100       0.04131600
C        1.47239900      -1.23047600      -1.21625000
N        1.26893700      -1.78098000      -2.20604000
H       -3.17907200       0.25755900       2.06843000
H       -3.18134600       0.17380100       0.30405200
H       -3.39093800       1.72098100       1.12826200
H       -0.97122000       1.54790800       1.98922500
H       -0.96285900      -0.04322800      -0.63703700
H        1.23514000       1.27020600       1.11125400
H        1.18651300       1.43536000      -0.63888000
H        1.52618300      -1.21733500       0.87097000
H        2.81510900      -0.30815900       0.08833500
