12
Properties=species:S:1:pos:R:3 pbc="F F F"
C       -3.19613300       0.08893000      -0.65051600
C       -1.99314900       0.02724500      -0.73423200
C       -0.53433000      -0.04440000      -0.84427600
C        0.07753800      -0.99228200       0.15387800
C        1.20964500      -0.74994000       0.83607800
C        1.97114900       0.46173700       0.71620300
N        2.60783200       1.42206600       0.63844300
H       -4.25411700       0.15072800      -0.57511200
H       -0.10353000       0.95789300      -0.73333700
H       -0.27872600      -0.38105300      -1.86225600
H       -0.43492600      -1.93998000       0.30992100
H        1.60815900      -1.48978900       1.52887500
