19
Properties=species:S:1:pos:R:3 pbc="F F F"
C       -0.90939500       0.80029000       2.13483300
C       -1.25829200       0.83580900       0.65366900
C       -0.36502300      -0.00140000      -0.27370900
N       -0.75478300       0.17927300      -1.67664400
C        0.07303000      -1.38886300       0.11772700
C        1.08802500      -0.25619300       0.05183400
N        2.09079400      -0.21739200      -1.00200400
H       -1.62930500       1.38583300       2.70292400
H        0.07706700       1.21806500       2.32659500
H       -0.92581200      -0.21474900       2.52710300
H       -1.23406500       1.87611600       0.30676800
H       -2.29499600       0.50518400       0.52292700
H       -0.34811700      -0.53817900      -2.26979600
H       -0.47259100       1.09566500      -2.01879500
H        0.10735400      -2.13920400      -0.66579500
H       -0.20668800      -1.77050600       1.09484400
H        1.45949200       0.10446500       1.01661500
H        1.65772200      -0.15240800      -1.91964500
H        2.68778800      -1.04130600      -0.97933300
