16
Properties=species:S:1:pos:R:3 pbc="F F F"
C       -2.71342800      -1.27087400       0.49756100
C       -1.22075400      -1.20282400       0.53727200
C       -0.45734100      -0.81601600      -0.49182500
C        1.04732200      -0.76406600      -0.44902500
C        1.61306500       0.61121500      -0.85153000
C        1.26026200       1.67207500       0.09168400
N        0.99889600       2.51422800       0.83087000
H       -3.06191800      -2.28224000       0.71361100
H       -3.10182000      -0.97597100      -0.47445500
H       -3.15075700      -0.61715500       1.25374400
H       -0.74730800      -1.48780800       1.47704400
H       -0.92582100      -0.52394500      -1.43180500
H        1.46001300      -1.50945100      -1.14292600
H        1.40654100      -1.03209500       0.54883800
H        1.24726100       0.89280200      -1.84638500
H        2.70677000       0.55920600      -0.91857600
