18
Properties=species:S:1:pos:R:3 pbc="F F F"
C        0.58597600       1.41161000       1.34838800
C        0.12288100       0.33643300       0.40020700
C       -0.37084400      -0.85668000       0.78884500
C       -0.56400700      -1.35207000       2.18843900
C        0.25457900       0.70089600      -1.05537300
C        0.65455100      -0.30497200      -2.08973900
N       -0.71051700       0.20065100      -2.04694800
H        0.50138100       1.11574500       2.38973700
H        0.00253700       2.32315300       1.20823800
H        1.62781800       1.67233300       1.15396600
H       -0.67660800      -1.55993000       0.01276600
H       -0.17467600      -0.66705700       2.93648100
H       -0.07054900      -2.31583200       2.32464900
H       -1.62385400      -1.51096500       2.39896500
H        0.56150300       1.73781400      -1.23293000
H        0.82046700      -1.33813000      -1.77658000
H        1.24560800       0.01229300      -2.95126700
H       -1.33881900      -0.48528100      -1.61999100
