20
Properties=species:S:1:pos:R:3 pbc="F F F"
C       -0.97813700       2.04803500       0.88982300
C       -0.35193900       0.75170400       1.39402000
C        0.32582700      -0.07478200       0.28979900
C        1.47718500       0.62381600      -0.42466700
C        0.37118700      -1.56798100       0.45665800
N       -0.58986400      -0.95159600      -0.46569400
C       -0.37320400      -1.15390500      -1.89830900
H       -1.49112700       2.56705200       1.69740800
H       -1.70290400       1.84782800       0.10414100
H       -0.22448700       2.72177600       0.48684700
H       -1.12535500       0.14016400       1.86832500
H        0.38264100       0.98481300       2.17493100
H        2.14805400       1.08557600       0.29900600
H        1.11436000       1.41187600      -1.08400700
H        2.06248800      -0.07009800      -1.02307100
H       -0.06463400      -2.03957700       1.34072900
H        1.20504100      -2.11636100       0.01053900
H       -0.95121500      -2.02138200      -2.23437100
H        0.67912200      -1.33040400      -2.17036200
H       -0.72844500      -0.28140500      -2.45420900
