20
Properties=species:S:1:pos:R:3 pbc="F F F"
C        0.65504100       0.18821400       1.80166800
C       -0.26916900      -0.09357000       0.59223200
C        0.22576300       0.75390700      -0.60814400
N        1.43635900       0.39048900      -1.34844800
C        0.14085600       0.31413600      -2.02877500
C       -0.26536300      -1.60820600       0.29461200
C       -1.71080900       0.34903300       0.94000700
H        0.32092800      -0.35751300       2.68179100
H        0.66153700       1.24878700       2.04456800
H        1.67738900      -0.11323600       1.58478500
H        0.14457800       1.83317100      -0.42303100
H        1.75872500      -0.54373000      -1.08558900
H       -0.24343000      -0.67993100      -2.26258500
H       -0.01547400       1.05518500      -2.81487100
H       -0.55500700      -2.16554400       1.18266300
H        0.72300100      -1.95304200      -0.00358500
H       -0.96696200      -1.85986500      -0.49783800
H       -2.08631300      -0.19687200       1.80290100
H       -2.38667900       0.16665300       0.10689300
H       -1.74473000       1.41143100       1.17343300
