15
Properties=species:S:1:pos:R:3 pbc="F F F"
C       -2.41863300      -0.10916900       0.11885500
C       -0.92462200       0.02941900       0.07113600
C       -0.26004800       1.20092500       0.00587500
C        1.25238000       1.25392500      -0.03672100
N        1.90367200      -0.05929900      -0.18165100
C        1.18821400      -1.13274300      -0.10325800
N       -0.19032300      -1.17090100       0.10182700
H       -2.89824000       0.86521200       0.13263300
H       -2.73472800      -0.65786900       1.00758400
H       -2.79309600      -0.65979400      -0.74625500
H       -0.81688700       2.13337200      -0.02707600
H        1.65192900       1.74508500       0.87730200
H        1.58888300       1.90665100      -0.86770200
H        1.66773900      -2.12072300      -0.19582800
H       -0.68278800      -2.05467400       0.04278200
