20
Properties=species:S:1:pos:R:3 pbc="F F F"
N       -2.14674500      -1.40630300      -1.04203200
C       -0.69258900      -1.26277400      -1.16360900
C       -0.11858600      -0.49444500       0.01922900
C       -0.01557600       1.00914800      -0.02160600
C        1.23227200       0.16253600      -0.08800600
C        2.22589100       0.09561900       1.05259400
C       -0.35669300       1.84912200       1.19084800
H       -2.52944100      -1.89516200      -1.84692000
H       -2.59181100      -0.49485900      -0.97170800
H       -0.40275600      -0.75518100      -2.10903000
H       -0.24731800      -2.26975500      -1.20924600
H       -0.36145600      -0.92138400       0.99310500
H       -0.30237900       1.47226000      -0.96890200
H        1.69802800       0.11559700      -1.07543300
H        1.72544200       0.05898200       2.01737600
H        2.88793300       0.96167300       1.04995100
H        2.85037600      -0.79375700       0.96932900
H       -0.12387400       1.32773000       2.11624100
H       -1.41878700       2.09327700       1.20565800
H        0.19494200       2.78946500       1.18710300
