15
Properties=species:S:1:pos:R:3 pbc="F F F"
C       -1.99546400       0.51833400       0.49722200
C       -0.60850300       0.24469200      -0.03929400
C        0.21288300       1.30207600      -0.74450400
C        0.72583200       0.69755600       0.54576500
N        1.64408600      -0.41459200       0.43090000
C        0.99662100      -1.38227400      -0.16686700
N       -0.31884400      -1.09966600      -0.51526600
H       -2.06193000       1.53378800       0.87995500
H       -2.25205700      -0.16355200       1.30878100
H       -2.75436800       0.40567300      -0.27886800
H       -0.14845900       2.32413400      -0.68612900
H        0.70920000       1.03540300      -1.67213300
H        0.84111700       1.35048300       1.41578200
H        1.43872900      -2.35086600      -0.40963200
H       -1.03715000      -1.81756000      -0.52112100
