20
Properties=species:S:1:pos:R:3 pbc="F F F"
N       -1.51023600      -0.64778200      -1.26769700
C       -1.49609100      -1.33182000       0.02643600
C       -0.96933100      -0.43160500       1.15204200
C        0.55782200      -0.23037000       1.15214300
C        1.10634100       0.60067500       0.01067500
C        2.03946800       0.11468600      -0.82168200
C        0.59714300       2.01011200      -0.11710600
H       -1.84610900      -1.27300200      -1.99585600
H       -0.57356500      -0.33588100      -1.51463200
H       -0.89800400      -2.26776800      -0.00427200
H       -2.52599300      -1.63690300       0.26761200
H       -1.24658100      -0.88245600       2.11173900
H       -1.47219800       0.53894200       1.11036200
H        1.05171800      -1.20740100       1.15939000
H        0.83200300       0.26270400       2.09472000
H        2.40737700      -0.89898900      -0.72186900
H        2.45371500       0.72156100      -1.61726900
H       -0.46998700       2.01931700      -0.34060500
H        1.11475200       2.54770000      -0.90739300
H        0.73241400       2.55658500       0.81689700
