16
Properties=species:S:1:pos:R:3 pbc="F F F"
C       -2.08016600       0.19566400       0.79647900
C       -0.56915700       0.12482000       0.80234000
C        0.28270200       0.94235900      -0.12688100
C        0.16369400      -0.55325800      -0.33703900
C        1.29684300      -1.40747100      -0.04942400
N        2.19763600      -2.09090600       0.17662300
C       -0.30517100       1.89898100      -1.14060800
H       -2.43110800       1.04988200       1.37460400
H       -2.50872300      -0.70136800       1.24152300
H       -2.47385400       0.28817900      -0.21305600
H       -0.13894300      -0.04527000       1.79037400
H        1.23424400       1.27292700       0.29220700
H       -0.44080700      -0.88418600      -1.18276900
H       -1.20930700       1.49835000      -1.59296900
H        0.40750700       2.09908100      -1.93967100
H       -0.55493400       2.85217200      -0.67580800
