15
Properties=species:S:1:pos:R:3 pbc="F F F"
C       -2.22147900       0.46568100       1.53869100
C       -0.72808400       0.42973200       1.44909200
C       -0.02385700       0.08459700       0.34599900
C        1.48064500       0.06007000       0.21706200
N        1.68285500      -0.19980000      -1.21536800
N        0.48296500      -0.55603600      -1.81031400
C       -0.50080200      -0.34337200      -0.96833300
H       -2.57353100       1.46694400       1.79750700
H       -2.58335900      -0.20442000       2.32200000
H       -2.69109000       0.17475500       0.60269900
H       -0.18665500       0.71281100       2.35150700
H        1.94605700      -0.73211900       0.83423000
H        1.95935600       1.00671300       0.52366300
H        2.46330900      -0.80681000      -1.47908000
H       -1.53335600      -0.50727700      -1.26782500
