18
Properties=species:S:1:pos:R:3 pbc="F F F"
C       -0.54321800      -2.31429000      -0.06114800
C       -0.75000100      -0.82322700      -0.06658600
C       -1.65874600      -0.23578100      -0.85944600
C        0.12837900      -0.04366100       0.86716100
N       -0.06344600       1.40784500       0.97522000
C        1.18715900       0.92101000       0.39404900
C        1.45144000       1.20284300      -1.06800700
H       -1.21710100      -2.81222700      -0.75334900
H       -0.71031200      -2.72669400       0.93526600
H        0.48068000      -2.56784700      -0.34038700
H       -2.27696200      -0.81896100      -1.53085300
H       -1.80141300       0.83702200      -0.83142600
H        0.36302600      -0.56559600       1.80608600
H        0.07471800       1.72145800       1.93838200
H        2.07340700       1.00382700       1.04013100
H        0.55312400       1.05554400      -1.66171600
H        2.23030400       0.54643800      -1.45541900
H        1.78457500       2.23075900      -1.20939100
