18
Properties=species:S:1:pos:R:3 pbc="F F F"
C       -1.03565900       0.33340200       1.83810200
C       -1.12324500      -0.38151300       0.51592200
C       -2.04381900      -1.33812600       0.30608500
C       -0.16871000      -0.00552500      -0.57362100
N        0.43245100       1.33988800      -0.61754800
C        1.29865600       0.20505600      -0.30565900
C        2.34403200      -0.18385800      -1.32878800
H       -1.68452700      -0.13207900       2.57510300
H       -1.33901900       1.37707900       1.73806400
H       -0.01681300       0.33092300       2.22697700
H       -2.74034600      -1.62904800       1.08179100
H       -2.11561600      -1.84481700      -0.64868100
H       -0.43312100      -0.39802000      -1.56178700
H        0.20280700       1.86404200       0.23031800
H        1.62580100       0.12469100       0.73969800
H        1.96230000      -0.06392200      -2.33950100
H        2.64972200      -1.22200000      -1.20100400
H        3.23412700       0.43732000      -1.23039500
