19
Properties=species:S:1:pos:R:3 pbc="F F F"
C        0.35223800       1.11842400       2.10117600
C        0.15642600       1.14890200       0.59970700
C        1.27686500       1.49558700      -0.32637700
N        0.81852300       0.10735700      -0.19811000
C        0.06317500      -0.42762900      -1.34834800
C       -0.66659000      -1.72708300      -0.99188000
N       -1.72385900      -1.49948700      -0.00317300
H        0.18999300       2.10415800       2.53693300
H        1.35948600       0.79821700       2.35571100
H       -0.34829200       0.43108600       2.57599600
H       -0.84937900       1.44092800       0.26845000
H        2.27201400       1.69698100       0.07428900
H        1.04098000       2.02071700      -1.25547800
H        0.77777600      -0.63467200      -2.16044400
H       -0.65758200       0.31570900      -1.74123500
H        0.07206800      -2.47651500      -0.63917500
H       -1.12000100      -2.14721600      -1.90267100
H       -1.33041400      -1.07444500       0.83299300
H       -2.16197400      -2.37925100       0.25794300
