20
Properties=species:S:1:pos:R:3 pbc="F F F"
C       -0.75193700      -3.01057500      -0.66384700
C       -0.91717900      -1.49748200      -0.72941200
C       -0.18622000      -0.77173100       0.40715200
C       -0.33823300       0.75427500       0.32595900
C        0.47978700       1.57179700       1.34807000
C        1.29075800       2.10223200       0.16096100
N        0.40327500       1.40331200      -0.79551700
H       -1.26670700      -3.49357400      -1.49182700
H       -1.15978300      -3.40937300       0.26292100
H        0.29817600      -3.29238000      -0.71167500
H       -1.98227200      -1.24408800      -0.69575300
H       -0.54624400      -1.13160200      -1.69268600
H        0.87627400      -1.03871500       0.38962100
H       -0.57383200      -1.12072400       1.37122600
H       -1.41593600       1.01311900       0.30678600
H        1.04506000       0.98534300       2.07743100
H       -0.09162000       2.33139200       1.88762900
H        2.33570100       1.75428500       0.13160300
H        1.29846500       3.19653600       0.03199500
H        0.89793300       0.73549800      -1.39195100
