20
Properties=species:S:1:pos:R:3 pbc="F F F"
N       -1.87574900       1.26528800       1.45792100
C       -2.22914400       0.67133300       0.16692000
C       -1.59863700      -0.71404700       0.00336600
C       -0.10012000      -0.75132300      -0.16552200
C        0.69457900       0.29201200      -0.43304600
C        2.18958200       0.24139400      -0.62274400
C        2.82871300      -1.13314500      -0.49038700
H       -2.20216800       2.22616700       1.51620500
H       -0.86786800       1.25077400       1.59184200
H       -1.93875800       1.32143200      -0.68546200
H       -3.32463900       0.57299900       0.11133600
H       -2.05775900      -1.21405700      -0.86215200
H       -1.86669200      -1.33289000       0.86846200
H        0.34175600      -1.74383400      -0.07422500
H        0.25950100       1.28662900      -0.53554300
H        2.65645500       0.92925000       0.09603200
H        2.42979400       0.65871300      -1.61050700
H        2.65713500      -1.55631900       0.49708700
H        3.90407500      -1.06635400      -0.64273400
H        2.42957000      -1.82686700      -1.22730800
