13
Properties=species:S:1:pos:R:3 pbc="F F F"
C       -1.47448700      -1.05389000       1.96719600
C       -0.70364600      -0.28969900       1.18915300
C       -0.97177000      -0.04729200      -0.25176000
N       -0.64148100       1.26195800      -0.82933400
C        0.17307800       0.11239700      -1.22800500
C        1.54723600       0.04672100      -0.76089500
N        2.64178100      -0.00286800      -0.40368900
H       -1.24236100      -1.20027700       3.01423100
H       -2.35473200      -1.55124000       1.57574000
H        0.17584200       0.20009900       1.60688300
H       -1.89114500      -0.49051500      -0.64946100
H       -0.14024000       1.84152400      -0.14955600
H        0.02805900      -0.22264400      -2.26081400
