20
Properties=species:S:1:pos:R:3 pbc="F F F"
C       -0.23473300      -1.34720200       2.18830200
C       -0.78593200      -1.80684100       0.84415300
C       -0.14328500      -1.12244100      -0.37075400
C       -0.42969600       0.38553200      -0.46897000
C        0.52018900       1.34284700       0.28481400
C        0.98144600       1.84662800      -1.08645700
N       -0.01983000       0.99649800      -1.76829200
H       -0.68849500      -1.91288400       2.99961500
H       -0.43962500      -0.29337600       2.36186800
H        0.84239600      -1.49220500       2.24058800
H       -1.86842100      -1.63926000       0.82127200
H       -0.64179000      -2.88906700       0.75288800
H       -0.52573900      -1.60459000      -1.27859800
H        0.93838300      -1.29669900      -0.36444300
H       -1.50249400       0.56731100      -0.25643200
H        1.29593300       0.86208400       0.88589400
H        0.01831200       2.09100400       0.90379500
H        2.02323400       1.59280200      -1.33938600
H        0.84338300       2.92314000      -1.27710500
H        0.39580600       0.32511800      -2.41843900
