19
Properties=species:S:1:pos:R:3 pbc="F F F"
C       -1.72851600      -2.05231100       0.17083100
C       -1.68983000      -0.54241600       0.38499400
C       -0.93442800       0.18769000      -0.71886300
N       -0.40580000       1.53632300      -0.46532900
C        0.54213500       0.42709400      -0.68235100
C        1.44120900      -0.02560700       0.47091900
N        2.67585300       0.76687500       0.57472600
H       -2.29887500      -2.54157700       0.95742100
H       -0.72587800      -2.47535400       0.17195000
H       -2.19166800      -2.29944400      -0.78246500
H       -1.24289000      -0.31940100       1.35939200
H       -2.71657600      -0.15940900       0.42643200
H       -1.38900400       0.08006900      -1.71201800
H       -0.46497500       1.75456900       0.53336600
H        1.05520600       0.48743200      -1.65113600
H        0.90116100       0.04380200       1.42492300
H        1.71995200      -1.08150500       0.33778800
H        2.44963900       1.75231500       0.68806900
H        3.23011700       0.66941700      -0.27268000
