17
Properties=species:S:1:pos:R:3 pbc="F F F"
C        0.16753700       1.24950100       2.09530500
C       -0.26941600       1.11747900       0.65249400
C        0.54268200       1.75558700      -0.44222000
C        0.51381700       0.26334800      -0.31272000
N       -0.19320700      -0.48321500      -1.34201300
N       -0.45032200      -1.82379200      -1.15877400
C       -0.46196800      -2.32836200       0.03428900
H       -0.15800500       2.19917600       2.51938500
H        1.25078000       1.19782300       2.18297600
H       -0.25660000       0.45380400       2.70701800
H       -1.34892600       1.13215100       0.50165800
H        1.45595000       2.27127400      -0.16306200
H        0.00903300       2.20318800      -1.27506300
H        1.42342800      -0.22033700       0.07810300
H        0.13265300      -0.29007800      -2.29547800
H       -0.71200300      -3.38440900       0.13812200
H       -0.24751800      -1.75885800       0.94896200
