19
Properties=species:S:1:pos:R:3 pbc="F F F"
C       -0.22982500      -1.77278000      -1.32359200
C       -0.73350900      -0.33602600      -1.22759200
C       -0.13312100       0.47234500      -0.06984000
C       -0.43380400      -0.01904800       1.35457600
N        0.59133000      -0.94945100       1.84440000
C        1.12696600       1.23945700      -0.30983400
N       -0.15896300       1.93949900      -0.23145200
H       -0.63410900      -2.26066700      -2.20832700
H       -0.53336200      -2.35813800      -0.45785500
H        0.85578300      -1.80705300      -1.38962700
H       -1.82642200      -0.34814300      -1.12995200
H       -0.51680000       0.18121000      -2.16910700
H       -1.44689800      -0.47473500       1.37999000
H       -0.46273500       0.84271200       2.03339500
H        0.64860200      -1.77564200       1.25528300
H        0.37979700      -1.24361800       2.79430400
H        1.60144700       1.18505300      -1.29225900
H        1.80890800       1.42887900       0.51934700
H       -0.48103000       2.19611600      -1.16813900
