20
Properties=species:S:1:pos:R:3 pbc="F F F"
N       -1.65481700      -0.91848800      -1.12494200
C       -0.29237300      -1.29783200      -0.74681600
C        0.40561300      -0.22321500       0.11922100
C        1.74614600      -0.76879500       0.63553800
C        0.53522000       1.18047400      -0.53999400
C       -0.26622100       1.79629800       0.61336900
C       -0.47655000       0.40906600       1.23196300
H       -2.06718600      -1.62292600      -1.73073400
H       -1.66053700      -0.02637800      -1.61269600
H        0.34178100      -1.50322900      -1.63696400
H       -0.33961900      -2.24194800      -0.18259600
H        2.40447500      -1.03406400      -0.19112100
H        1.59781700      -1.66129000       1.24233200
H        2.25930500      -0.03007900       1.24761500
H        0.05410400       1.26918300      -1.51804400
H        1.55972900       1.54932600      -0.63729300
H       -1.18296800       2.31056100       0.31340900
H        0.31192200       2.48182200       1.23810700
H       -1.51399700       0.07002000       1.21417200
H       -0.09211800       0.29243800       2.24872400
