20
Properties=species:S:1:pos:R:3 pbc="F F F"
C       -0.83345700      -2.46220100      -1.31705600
C       -0.23229600      -2.04017500       0.01831200
C       -0.91041700      -0.81095500       0.64084700
C       -0.68077000       0.50402100      -0.12241200
C        0.75471300       1.00836100      -0.04428400
C        1.04920400       2.46686600      -0.12374500
N        1.18682800       1.74905400       1.14538400
H       -0.33206900      -3.34780900      -1.70154600
H       -0.73860600      -1.67574300      -2.06294100
H       -1.89135100      -2.69512000      -1.21277300
H        0.83833400      -1.84870300      -0.10625200
H       -0.31301900      -2.87497200       0.72294300
H       -0.55153500      -0.69166700       1.66855000
H       -1.98812700      -0.99529300       0.70991900
H       -1.35032600       1.26988700       0.28548800
H       -0.96741600       0.37456100      -1.17301900
H        1.51373900       0.31938100      -0.43330200
H        0.21697900       3.16850800      -0.21236900
H        1.98465400       2.81210100      -0.56673200
H        0.38908500       1.94598300       1.75436500
