18
Properties=species:S:1:pos:R:3 pbc="F F F"
C       -2.13926800      -0.10591100      -0.26985600
C       -0.75411000       0.03220400      -0.91841100
C        0.02662200       1.28457700      -0.43421800
C        1.20024600       0.75002800       0.37155100
C        1.21226300      -0.73247700       0.23551500
N        0.11498000      -1.14822200      -0.63061400
C        0.87188700      -0.10882300       1.56826400
H       -2.77095400       0.74388800      -0.52237000
H       -2.07143000      -0.16085200       0.81504700
H       -2.63943300      -1.00787900      -0.61961700
H       -0.91446100       0.10243500      -2.01584900
H       -0.61130300       1.95961300       0.14762300
H        0.39385400       1.86472900      -1.28802500
H        2.12315300       1.32988600       0.39410000
H        2.14306200      -1.30109600       0.13697800
H       -0.42830200      -1.91201800      -0.22082200
H        1.62033500      -0.16046300       2.35333800
H       -0.15521500      -0.13827500       1.91682100
