15
Properties=species:S:1:pos:R:3 pbc="F F F"
C       -2.29413900      -0.22910000      -0.01809700
C       -0.84579800       0.12695000      -0.04382600
N       -0.35763500       1.24170900       0.40294100
C        1.09688600       1.24295200       0.18761700
C        1.40724700      -0.12900700      -0.40596300
N        0.10662300      -0.79538900      -0.63491800
C        1.03559900      -1.32963400       0.39257400
H       -2.87917900       0.54413000       0.47195900
H       -2.45439200      -1.17227200       0.50581400
H       -2.67521800      -0.36101500      -1.03157000
H        1.62407200       1.44897800       1.13334600
H        1.37502900       2.05306000      -0.50589400
H        2.14835200      -0.22764500      -1.20434000
H        1.47255400      -2.29819700       0.14356900
H        0.74710100      -1.20424100       1.43712700
