20
Properties=species:S:1:pos:R:3 pbc="F F F"
C       -2.90595500      -0.33739200       0.68082000
C       -1.38684800      -0.40145800       0.78858600
C       -0.69491400       0.25313100      -0.41250700
C        0.84562300       0.22049400      -0.41426300
N        1.43367700       0.89865900      -1.57262300
C        1.63395300       0.31439500       0.86173600
C        1.60253800      -0.97551300       0.09173000
H       -3.37547500      -0.80429800       1.54413400
H       -3.25713900      -0.85227800      -0.21136200
H       -3.25221500       0.69296700       0.62751900
H       -1.07605300      -1.44779600       0.87358300
H       -1.07044800       0.09181400       1.71336500
H       -1.01906300       1.29953100      -0.48170700
H       -1.05301500      -0.22446200      -1.33375700
H        1.16140400       1.87959800      -1.59246400
H        1.12267900       0.46627800      -2.44038900
H        1.10346000       0.34995800       1.80758200
H        2.55816800       0.88104000       0.84145200
H        1.04984300      -1.80517600       0.52069400
H        2.50573500      -1.25973100      -0.43690000
