18
Properties=species:S:1:pos:R:3 pbc="F F F"
C       -2.62416900       0.65762400       0.17106200
C       -1.11744000       0.59697600       0.03528700
N       -0.54273200       0.91796200      -1.27939900
C       -0.44150300      -0.45866600      -0.77974100
C        0.92020300      -1.04540800      -0.40068700
C        1.76434800      -0.16507100       0.47810000
C        2.30765200      -0.55426700       1.63210300
H       -2.96256300       1.68200900       0.32463300
H       -2.96388900       0.06714700       1.02181500
H       -3.11007600       0.27513000      -0.72315300
H       -0.55880400       0.97813200       0.89964400
H        0.34788000       1.40967200      -1.17490200
H       -1.08131600      -1.16396500      -1.32509800
H        0.76845000      -2.01481500       0.08751600
H        1.47675200      -1.25622500      -1.32634700
H        1.95201600       0.84691600       0.11546700
H        2.14984700      -1.55280900       2.02320100
H        2.92628300       0.11594400       2.21627700
