20
Properties=species:S:1:pos:R:3 pbc="F F F"
C       -1.14103000       0.80519300      -1.87574200
C        0.04880500       0.78174800      -0.90702700
C       -0.42586200       0.41276400       0.52299100
C       -0.77733200      -1.05997100       0.82099800
C        0.41636300      -1.07016900       1.78196200
N        0.63977900       0.37636600       1.56386200
C        1.16515700      -0.12650400      -1.43820000
H       -0.82774500       1.11912700      -2.86935300
H       -1.90946400       1.49429200      -1.53043400
H       -1.59214600      -0.18134800      -1.96508500
H        0.45500400       1.80561300      -0.84934800
H       -1.23550500       1.11864700       0.80057500
H       -0.70798300      -1.74963100      -0.02378900
H       -1.74890800      -1.20400400       1.30040600
H        1.25844800      -1.70193700       1.45649800
H        0.19075200      -1.32597800       2.82999500
H        1.57245400       0.59720000       1.20713400
H        0.81640800      -1.14852600      -1.57144600
H        2.01511300      -0.14683900      -0.75866400
H        1.51851200       0.23045700      -2.40341800
