20
Properties=species:S:1:pos:R:3 pbc="F F F"
C       -0.64192600      -1.00301000      -2.27791300
C       -0.89738800      -1.46780000      -0.85013800
C       -0.37990500      -0.54469600       0.25288800
C       -0.28072900       0.96056600       0.11248800
C        0.97201200       0.13787500       0.18053500
C        1.88808800       0.15083700       1.38689700
N       -0.65223000       1.84723300       1.20748500
H       -1.02648700      -1.73400300      -2.98633300
H        0.42138400      -0.88070500      -2.47376000
H       -1.13240500      -0.05358300      -2.48301500
H       -0.45247600      -2.46261200      -0.71706100
H       -1.97724400      -1.60690200      -0.71076300
H       -0.64915300      -0.89237200       1.25245700
H       -0.52461200       1.38366700      -0.86717400
H        1.50454200       0.02814000      -0.76608900
H        1.32635900       0.14110000       2.31907000
H        2.52489200       1.03553800       1.38924500
H        2.53933100      -0.72298100       1.38679100
H       -0.28503200       1.50853500       2.09213800
H       -1.66441100       1.92291400       1.28356100
