20
Properties=species:S:1:pos:R:3 pbc="F F F"
C        1.09228200       1.62200800      -0.56644700
C        0.70613000       1.04369800       0.80055400
C       -0.59025100       0.19895500       0.72889900
C       -0.53312100      -0.97422600      -0.24100500
N       -1.78502200      -1.65502700      -0.59033500
C       -1.09902400      -0.86587500      -1.61520800
C        1.87004800       0.25788200       1.41853900
H        0.27084600       2.19421900      -0.99304900
H        1.35267000       0.83329900      -1.26901400
H        1.95169500       2.28294100      -0.47507400
H        0.49166900       1.89261600       1.47072400
H       -1.42524600       0.85293100       0.45276000
H       -0.81382100      -0.17714900       1.73514900
H        0.31117400      -1.65825300      -0.09625300
H       -2.58896600      -1.14042200      -0.22325400
H       -1.56970000       0.07120900      -1.91957500
H       -0.66331900      -1.44335900      -2.43210300
H        2.15174200      -0.59087300       0.79899600
H        1.60337900      -0.11981500       2.40358300
H        2.74665300       0.89318900       1.52746600
