15
Properties=species:S:1:pos:R:3 pbc="F F F"
C       -1.24555000      -0.49067600       1.60387600
C        0.04190300      -0.84548400       1.59573100
C        1.08695700      -0.33396600       0.65932300
C        1.06445900       1.08380300       0.13666600
N        0.77682800      -0.02854000      -0.74208100
C       -0.47475400      -0.23855400      -1.34927400
N       -1.12837100       0.65404400      -2.01300600
H       -1.93332500      -0.91718700       2.32336100
H       -1.64620900       0.22318800       0.89340100
H        0.39652600      -1.56913900       2.32993200
H        2.07559400      -0.78940000       0.79732300
H        2.01054000       1.60222400      -0.04091200
H        0.22743600       1.72860000       0.41578900
H       -0.83017900      -1.28253100      -1.32995900
H       -0.67766900       1.57498000      -1.98125800
