18
Properties=species:S:1:pos:R:3 pbc="F F F"
C       -2.13895900      -1.72150300      -0.02706600
C       -1.11123700      -0.90738100      -0.28841600
C       -0.34676600      -0.18617600       0.75682000
C        0.19827500       1.20570500       0.54418900
C        1.15881700       0.04310400       0.62906800
C        1.94018600      -0.44894700      -0.56956000
N       -0.05507200       1.92424200      -0.69284100
H       -2.66900700      -2.22852200      -0.82313600
H       -2.47597400      -1.89765600       0.98768100
H       -0.80356900      -0.75891000      -1.32361500
H       -0.68783500      -0.39679700       1.77266000
H        0.16188200       1.86064400       1.42269000
H        1.70068000      -0.05131300       1.57264200
H        1.43292500      -0.21761200      -1.50378000
H        2.09055400      -1.52775100      -0.52969600
H        2.92424300       0.01882200      -0.60245700
H       -0.21711800       1.28751500      -1.46745600
H        0.72682400       2.53307500      -0.92585300
