20
Properties=species:S:1:pos:R:3 pbc="F F F"
N       -1.35428900      -1.26135900      -1.57281800
C       -1.24612700      -1.60948700      -0.15494700
C       -0.37993900      -0.61324200       0.62838800
C        1.08504700      -0.43483700       0.17298800
C        0.82702200       1.06881500      -0.06750000
C       -0.64029200       0.88658000       0.37699300
C        1.66797400       2.03828200       0.75569100
H       -1.88133100      -1.96897200      -2.07737200
H       -0.43273000      -1.17857100      -1.99427400
H       -0.83428600      -2.63260000      -0.01086900
H       -2.25872500      -1.62620300       0.27781200
H       -0.44360300      -0.87244400       1.69594000
H        1.36168000      -0.99629500      -0.72400600
H        1.82594100      -0.65350900       0.94666800
H        0.90838500       1.33781200      -1.13090500
H       -1.37385000       1.08751900      -0.40641900
H       -0.92365900       1.45343500       1.26789900
H        1.62300300       1.79670700       1.81601000
H        1.31458600       3.06062300       0.63031100
H        2.71250300       2.00534400       0.44925100
