15
Properties=species:S:1:pos:R:3 pbc="F F F"
C        0.77245200       2.32679800      -0.98047600
C        0.37351500       1.68160900       0.11569400
C       -0.42985000       0.39733000       0.13168700
C       -0.20155700      -0.57637500      -1.04075500
C       -0.16631100      -1.90117300      -0.31607900
N       -0.15963400      -1.78718800       0.97641500
N       -0.12309300      -0.43277800       1.33486300
H        1.31898000       3.25960900      -0.91356300
H        0.57402600       1.94260800      -1.97477700
H        0.59684400       2.11073600       1.09358300
H       -1.50682300       0.68579000       0.16600600
H        0.74389300      -0.37860600      -1.56353500
H       -0.99143600      -0.52718400      -1.79975300
H       -0.12603800      -2.87903600      -0.79478400
H       -0.71985200      -0.24328800       2.14745200
