20
Properties=species:S:1:pos:R:3 pbc="F F F"
C       -1.84412700      -0.09615200       0.03596700
C       -0.43617800       0.19378500       0.48593500
C        0.00112700       0.05500400       1.75211300
C       -0.78214200      -0.40610400       2.94272900
C        0.51410800       0.67549200      -0.59524500
C        0.84862000      -0.40270100      -1.63954200
N        1.79292100       0.11762600      -2.63115800
H       -2.51854600      -0.27359600       0.86886500
H       -1.87238800      -0.97687700      -0.60878500
H       -2.23864500       0.73544400      -0.54910700
H        1.04508700       0.29489000       1.95623000
H       -1.83095300      -0.57760200       2.71643500
H       -0.72565200       0.32878600       3.74757100
H       -0.36884200      -1.33621700       3.33833700
H        1.44468400       1.02805000      -0.14072800
H        0.07270200       1.53759400      -1.11321300
H       -0.08770100      -0.76695200      -2.11259100
H        1.30329700      -1.27226000      -1.14466900
H        1.40681000       0.93018500      -3.10509300
H        2.01125000      -0.59075800      -3.32689300
