18
Properties=species:S:1:pos:R:3 pbc="F F F"
C       -2.11107800       0.00200100       0.91482100
C       -0.59503400       0.00446100       0.79819100
C        0.01130600      -0.99071400      -0.22408900
C        1.52993000      -0.77149300      -0.02653400
C        1.52674100       0.77737900      -0.03733800
C        0.00720800       0.98754500      -0.23811100
N       -0.32713400      -0.00984600      -1.29845500
H       -2.45879100      -0.87406400       1.46196300
H       -2.57594000      -0.00702000      -0.06826600
H       -2.46271200       0.88523200       1.44774800
H       -0.12681700       0.01261500       1.79370800
H       -0.35424400      -2.02356000      -0.34198400
H        2.12365000      -1.19632300      -0.84161200
H        1.90853300      -1.18973500       0.91100600
H        2.11898900       1.19319700      -0.85810600
H        1.90348100       1.21016600       0.89435300
H       -0.36247200       2.01715500      -0.37059300
H        0.36182500      -0.01381700      -2.06067400
