19
Properties=species:S:1:pos:R:3 pbc="F F F"
C       -0.95519300      -0.26771300      -2.25649500
C       -0.71518300      -0.35153500      -0.75357500
C        0.36410600      -1.34789500      -0.26834200
C        1.07253100      -0.22749500       0.52087100
C        0.08350900       0.82124500      -0.08784700
N       -0.62206500       1.67657700       0.86930100
N        1.04444700      -0.40953500       1.97486100
H       -1.39663100      -1.18914900      -2.63371300
H       -0.02401500      -0.09976800      -2.79510000
H       -1.63252100       0.55028300      -2.49786400
H       -1.67263000      -0.52134200      -0.24069700
H        0.96873900      -1.76931500      -1.07531900
H       -0.01203200      -2.17370100       0.33986700
H        2.12059400      -0.06279400       0.21348300
H        0.57204900       1.46599500      -0.83697300
H       -1.10339100       1.11535400       1.56801300
H       -1.30964900       2.25546600       0.39296300
H        0.10756500      -0.65025700       2.28824000
H        1.32663000       0.45028900       2.44029600
