22
Properties=species:S:1:pos:R:3 pbc="F F F"
C       -2.83811200       0.09495700      -1.60563300
C       -1.32441100      -0.02790600      -1.48216800
C       -0.71760800       1.05894800      -0.58572700
C        0.81586700       1.01614900      -0.51510700
C        1.40629900      -0.22454000       0.16763800
C        1.12574500      -0.29509600       1.67176300
N        1.78434900      -1.46241100       2.26622400
H       -3.23890600      -0.68057700      -2.25518700
H       -3.11988000       1.05991400      -2.02269000
H       -3.32003700       0.00061100      -0.63444100
H       -0.87218200       0.02816100      -2.47829500
H       -1.07255000      -1.01717300      -1.08632200
H       -1.14181200       0.98034500       0.42086900
H       -1.01973700       2.04133500      -0.96609000
H        1.16759400       1.91250800       0.00889800
H        1.21779800       1.08198100      -1.53251100
H        2.48990500      -0.22752300       0.01170800
H        1.02919800      -1.13327900      -0.31458300
H        0.03011400      -0.30755600       1.85046100
H        1.50594300       0.61196400       2.16477400
H        1.47965700      -2.31753800       1.80815500
H        1.56777200      -1.53137800       3.25709000
