15
Properties=species:S:1:pos:R:3 pbc="F F F"
C       -2.10910500       1.12079300      -1.24437500
C       -0.61792900       1.14411000      -1.08550500
C        0.05492300       0.31306000      -0.25539900
C       -0.52854200      -0.76106200       0.62555300
N        0.66527300      -1.43060500       1.15824300
N        1.80215000      -0.70167600       0.85052500
C        1.49088800       0.24991800       0.00088100
H       -2.44774000       1.92776800      -1.88836300
H       -2.61714800       1.22113400      -0.28254700
H       -2.45257000       0.17947100      -1.68201900
H       -0.05738700       1.86221500      -1.68037400
H       -1.17470200      -1.46698000       0.07315400
H       -1.15570900      -0.34652100       1.43800200
H        0.63670600      -1.75517400       2.12812100
H        2.25517800       0.90313600      -0.41428200
