18
Properties=species:S:1:pos:R:3 pbc="F F F"
C        1.19086600       1.90078500       0.37731000
C        0.78857400       0.70803100      -0.44994000
C        1.60131600       0.21164500      -1.39294800
C       -0.60973900       0.17157000      -0.19096500
C       -0.96274300      -1.27067600      -0.60611400
C       -1.20468100      -1.56312200       0.87777700
N       -0.91575000      -0.15498300       1.23875800
H        2.18910400       2.24551700       0.11948100
H        1.17612000       1.66506600       1.44223700
H        0.49250700       2.72530900       0.22758400
H        2.57632700       0.64713700      -1.57483400
H        1.31540000      -0.63461400      -2.00569200
H       -1.33389200       0.91982200      -0.58020700
H       -0.15169000      -1.84499800      -1.05980800
H       -1.84308300      -1.35905600      -1.24794800
H       -0.50526400      -2.28599500       1.32467700
H       -2.22711100      -1.87553800       1.14322100
H       -0.09972100      -0.06717500       1.84927000
