19
Properties=species:S:1:pos:R:3 pbc="F F F"
N       -0.96632700       0.99741100       2.37212400
C        0.28881200       0.80338600       1.63999200
C        0.02297600       0.48322000       0.17517000
C        1.06533700      -0.19539600      -0.65743600
C       -0.19042200      -0.95207200      -0.26381700
C       -1.26176800      -1.29573000      -1.27643600
N        1.29679100       0.25621000      -2.02184800
H       -0.78593400       1.16472800       3.35838100
H       -1.56138700       0.17793300       2.28355200
H        0.90930300      -0.00421900       2.08566200
H        0.88509200       1.72632200       1.72042600
H       -0.58913600       1.22258000      -0.34310400
H        1.98596200      -0.49751700      -0.14452900
H       -0.05812500      -1.70298100       0.51806900
H       -1.34521600      -0.52470500      -2.03976600
H       -2.23696200      -1.39790500      -0.79994300
H       -1.04183200      -2.23927500      -1.77692600
H        0.49494300       0.76960500      -2.37708400
H        1.48043800      -0.53035300      -2.64150700
