18
Properties=species:S:1:pos:R:3 pbc="F F F"
C       -1.74857600      -0.34624800       0.96237100
C       -0.30398600      -0.11382100       0.48360900
C       -0.29177300       0.33708200      -0.98732400
C       -0.37443700       1.78405600      -1.33319900
N        0.87774600       1.04619700      -1.50831700
C        0.52781700      -1.36895500       0.66582300
C        1.56998600      -1.46644400       1.49068700
H       -1.76757400      -0.64882700       2.00686100
H       -2.23264800      -1.12666900       0.37805000
H       -2.33859800       0.56298500       0.86214000
H        0.13710400       0.68894000       1.09486300
H       -0.72672000      -0.38304900      -1.69148500
H       -0.41469200       2.51618300      -0.52360300
H       -0.86363800       2.09849800      -2.25650600
H        1.53424600       1.26421900      -0.75504900
H        0.23074100      -2.23279800       0.07012300
H        1.89149600      -0.62869000       2.09937800
H        2.13187400      -2.38819400       1.58163500
