18
Properties=species:S:1:pos:R:3 pbc="F F F"
C       -2.12826800       0.61798700      -0.61468300
C       -0.77226000      -0.04030700      -0.62663000
C       -0.26509900      -0.50521100      -1.78553200
C       -0.04593100      -0.16243700       0.66419300
C       -0.66242500       0.03574500       1.84443800
C        1.42753000      -0.53784200       0.63836200
N        2.24002500       0.51611300       0.02180300
H       -2.51679500       0.72713200      -1.62407400
H       -2.08204700       1.60490300      -0.15530700
H       -2.84477200       0.02827200      -0.04148300
H       -0.82075500      -0.40992000      -2.71040100
H        0.69210900      -1.00873800      -1.83602400
H       -1.71369500       0.28811200       1.91167400
H       -0.11970700      -0.05886700       2.77757700
H        1.54842800      -1.51109300       0.11350400
H        1.78077100      -0.70013200       1.66670200
H        1.87112000       0.76932700      -0.89141600
H        3.20388200       0.21060500      -0.08426200
