19
Properties=species:S:1:pos:R:3 pbc="F F F"
C       -0.90503200       0.85170800       2.29795600
C       -1.42623000       0.71964000       0.88264400
N       -0.66293200       1.30766000      -0.23127400
C       -0.78504600      -0.15783000      -0.14606400
C        0.45042500      -1.00337200       0.13740200
C        1.20784400      -1.38677600      -1.14151400
N        1.76247500      -0.20633800      -1.80490900
H       -1.18322100       1.81633800       2.72166900
H        0.17909600       0.77367200       2.33785800
H       -1.32260700       0.07874500       2.94329700
H       -2.50885900       0.87359700       0.79198800
H        0.26206100       1.59861200       0.09675400
H       -1.44836700      -0.57937600      -0.91317900
H        1.12528300      -0.46663900       0.81079600
H        0.15195100      -1.92243600       0.65799300
H        0.52776300      -1.95764900      -1.81048600
H        2.03178700      -2.07048200      -0.88654100
H        1.02683000       0.46940900      -1.99843100
H        2.20971700      -0.46326100      -2.68098100
