18
Properties=species:S:1:pos:R:3 pbc="F F F"
C       -0.91577900       0.62204100       1.65558300
C        0.56677300       0.36066200       1.50594000
N        1.29653300       1.05914000       0.43928400
C        1.17291700      -0.40080400       0.36681000
C        0.39305900      -1.02875800      -0.78915100
C       -0.58458800      -0.11629700      -1.47551300
C       -1.76971400      -0.50608700      -1.94852300
H       -1.09002800       1.53293300       2.22791400
H       -1.40241800      -0.19709000       2.18455700
H       -1.39530000       0.73503900       0.68767100
H        1.10431300       0.28293500       2.46209000
H        2.23036800       1.33228300       0.75295700
H        2.08921000      -0.95722300       0.61302500
H       -0.11197100      -1.94058300      -0.44761100
H        1.12768900      -1.36268000      -1.53824800
H       -0.25861800       0.91395900      -1.61305400
H       -2.12293600      -1.52395400      -1.82837700
H       -2.42204200       0.18586200      -2.46678600
