19
Properties=species:S:1:pos:R:3 pbc="F F F"
C       -1.51535700      -0.91537900      -0.78748100
C       -0.03746300      -0.59524200      -0.97247000
C        0.96112900      -1.65918000      -0.47234800
N        1.44348600      -0.74463800       0.58479000
C        0.63427700       0.37879200       0.03948000
C       -0.21666500       1.10537000       1.09021600
N       -1.01456500       2.17108500       0.47597700
H       -1.83080600      -1.68248200      -1.49405100
H       -2.12747200      -0.03095500      -0.95237700
H       -1.71930400      -1.28430800       0.21560800
H        0.13788800      -0.29898100      -2.01760000
H        1.73644000      -1.93604800      -1.20576300
H        0.52354200      -2.59080600      -0.07852600
H        2.45251600      -0.58056900       0.56393900
H        1.26742400       1.12600200      -0.48486200
H        0.45911300       1.49920800       1.87939800
H       -0.89276500       0.39963600       1.59078100
H       -0.41567300       2.83605200      -0.00737900
H       -1.54888300       2.67195400       1.18107500
