20
Properties=species:S:1:pos:R:3 pbc="F F F"
C       -0.73882900      -1.49661700      -1.94258300
C       -1.07092800      -1.79320800      -0.48555300
C       -0.17487700      -1.06439800       0.52661600
C       -0.30611200       0.46874400       0.49348900
C        0.42475100       1.22920100       1.62109900
C        1.32619000       1.82561000       0.53542500
N        0.53193600       1.16833200      -0.52696300
H       -1.37987300      -2.07477300      -2.60523000
H        0.29429900      -1.75300500      -2.17023100
H       -0.88268200      -0.44397300      -2.17275200
H       -0.99030300      -2.87195000      -0.31157000
H       -2.11699600      -1.53006600      -0.29375200
H        0.87113400      -1.34805100       0.36676000
H       -0.43635800      -1.41495300       1.53228500
H       -1.37582700       0.74223500       0.39873800
H        0.93341400       0.60202300       2.35815900
H       -0.19119900       1.95600000       2.15687800
H        2.37455700       1.48963900       0.57663100
H        1.33012100       2.92520600       0.46244900
H        1.08499300       0.52735800      -1.10059100
