16
Properties=species:S:1:pos:R:3 pbc="F F F"
C        1.18947900       2.27096500      -0.52722300
C        0.71773300       1.08360500      -1.35968700
C       -0.31909800       0.23508400      -0.63496100
C       -0.52960400      -1.19639300      -1.01135200
C        0.13225600      -0.86179000       0.30119900
C       -0.58409900      -1.08584500       1.54062300
N       -1.14158800      -1.25997300       2.53445100
H        1.91788500       2.86298800      -1.07671200
H        1.65357600       1.93922200       0.39909200
H        0.35603400       2.92010400      -0.26777000
H        1.57513400       0.45927600      -1.63184900
H        0.28997100       1.44799400      -2.30104800
H       -1.21020200       0.77983600      -0.32108700
H        0.10226100      -1.62413300      -1.78390100
H       -1.53902700      -1.59308800      -0.98098900
H        1.20548400      -1.04614300       0.37151500
