15
Properties=species:S:1:pos:R:3 pbc="F F F"
N       -0.13746200       0.03377700       2.77581200
C       -0.37887000       0.01265400       1.64919500
C       -0.72858100       0.02878300       0.23904100
C        0.15482200       0.70515400      -0.78043400
N        0.11799000      -0.75478200      -0.68175300
C       -0.58924100      -1.47051400      -1.74556200
C        1.43251000       1.41024200      -0.38373500
H       -1.80900600       0.02188200       0.04510500
H       -0.37761000       1.14161500      -1.63778700
H        0.09581100      -1.65840700      -2.57631500
H       -1.45837400      -0.91580000      -2.13453700
H       -0.93830000      -2.43637000      -1.37119700
H        1.91122700       0.90260600       0.44954100
H        1.23388000       2.43972000      -0.08792700
H        2.13483900       1.43387100      -1.21632700
