12
Properties=species:S:1:pos:R:3 pbc="F F F"
C       -3.75562200       0.00238000       0.30824200
C       -2.53919500      -0.01327600       0.30481300
C       -1.15262200      -0.02258600       0.31174000
C        0.06613000      -0.05330100       0.28828200
C        1.51760300      -0.03478400       0.34631300
C        2.32939000       0.74423900      -0.64361300
N        2.26909500      -0.70828500      -0.72200200
H       -4.81800500       0.01045600       0.30120300
H        1.92806500      -0.12686500       1.36179600
H        3.26472400       1.19511100      -0.30366700
H        1.82650600       1.27762000      -1.45021700
H        3.12094200      -1.13435500      -0.34976300
