14
Properties=species:S:1:pos:R:3 pbc="F F F"
C       -0.26401900       0.67145700       2.56712100
C       -0.37488000       1.30892600       1.39745600
C        0.14498900       0.82262800       0.08974500
N        1.29242500      -0.09143400       0.03882100
C       -0.02050500      -0.63026900      -0.30941200
C       -0.27577200      -0.99446400      -1.69210700
C       -0.56859700      -1.30290300      -2.82454200
H       -0.67188400       1.09551800       3.47537300
H        0.23706100      -0.28698200       2.65082800
H       -0.88866800       2.26962400       1.36784500
H        0.13107000       1.55996900      -0.71825000
H        1.56050300      -0.38117500       0.98380900
H       -0.49202400      -1.29153700       0.42989800
H       -0.77033200      -1.57762600      -3.83081500
