13
Properties=species:S:1:pos:R:3 pbc="F F F"
C       -0.85883100      -2.42163200       0.75459700
C       -0.95935000      -1.10498300       0.98486500
C       -0.22894600      -0.07165900       0.25405100
C       -0.30248300       1.33095500       0.45517400
C        0.57008900       1.87703500      -0.48166600
N        1.10265800       0.83424800      -1.16844100
N        0.64318400      -0.35249100      -0.75076400
H       -1.43003100      -3.13806800       1.33205800
H       -0.20187300      -2.80536300      -0.01657800
H       -1.62881200      -0.74888900       1.76810100
H       -0.89986000       1.87253700       1.17418900
H        0.83807600       2.90361200      -0.69910200
H        1.77873000       0.88557700      -1.92636200
