20
Properties=species:S:1:pos:R:3 pbc="F F F"
N       -2.32076300      -1.00668400       1.04312700
C       -0.90438000      -0.67338300       1.17038400
C       -0.37296400       0.16172700       0.02188400
C       -1.17797200       0.71452500      -0.89401900
C        1.15110800       0.31058700      -0.00134900
C        1.80230100      -0.90059100      -0.69431400
C        1.63014300       1.61984200      -0.63965200
H       -2.63348400      -1.54945200       1.84357900
H       -2.48914500      -1.54610000       0.19781100
H       -0.26935500      -1.58277600       1.27142400
H       -0.75825400      -0.11645300       2.11129100
H       -2.25131600       0.58499000      -0.83826500
H       -0.78794100       1.31484900      -1.70607800
H        1.49193100       0.30771500       1.04860900
H        1.51105300      -0.95185900      -1.74105900
H        1.50471900      -1.83180800      -0.21601600
H        2.88754400      -0.82981200      -0.65023200
H        1.40454700       1.64977900      -1.70341000
H        2.70795100       1.72215800      -0.52761100
H        1.15767600       2.47930800      -0.16953900
