19
Properties=species:S:1:pos:R:3 pbc="F F F"
C       -2.42820700      -0.36059400      -0.30040600
C       -0.92475400      -0.26545100      -0.53284300
C       -0.05208200      -1.41239300       0.03130000
C        0.84987900      -0.37254000       0.76017400
C       -0.13595800       0.76222900       0.32004600
N        0.39765000       1.91128100      -0.41254700
N        2.22167200      -0.22831400       0.26126200
H       -2.85762500      -1.18856500      -0.86279900
H       -2.92684300       0.55417100      -0.61589500
H       -2.65584900      -0.51905800       0.75253200
H       -0.73329900      -0.11543500      -1.60446700
H        0.45287700      -2.02263800      -0.72182300
H       -0.58754600      -2.08228100       0.70856100
H        0.89649800      -0.52150100       1.85222600
H       -0.72569600       1.13628600       1.17447500
H        0.91833300       1.60570500      -1.23086700
H        1.02819900       2.44477500       0.18162800
H        2.22607900      -0.13480700      -0.75155000
H        2.77635600      -1.04492400       0.50735000
