18
Properties=species:S:1:pos:R:3 pbc="F F F"
C        2.48017300       1.20350800       0.41299500
C        1.41422600       0.82105100       1.39220800
C        0.29924900       0.12613600       1.12637900
C       -0.12162400      -0.40319300      -0.22413700
C       -1.11876700       0.45367800      -1.04908700
C       -1.99440100      -0.79977300      -1.13792500
N       -1.12436600      -1.50377500      -0.17351400
H        3.46724900       0.94582900       0.79853700
H        2.47920600       2.28223600       0.24344500
H        2.35032300       0.71529200      -0.54980800
H        1.58098800       1.15926200       2.41538700
H       -0.39541000      -0.06547300       1.94331700
H        0.76597300      -0.67980400      -0.82810200
H       -0.73734900       0.84503700      -1.99584600
H       -1.57074500       1.27633500      -0.49091600
H       -2.01341300      -1.26423400      -2.13787600
H       -3.03752400      -0.69276600      -0.79876800
H       -0.77187400      -2.40373300      -0.50737300
