20
Properties=species:S:1:pos:R:3 pbc="F F F"
C       -1.96060100      -0.21030000      -0.96718900
C       -0.43803600      -0.15560700      -0.85951100
C        0.19810300      -1.42918900      -0.26448700
N        1.41140000      -0.99115900       0.45038400
C        1.55916400       0.46591500       0.32435800
C        0.14707300       0.99090400       0.01089400
C       -0.65052200       1.27469600       1.28709400
H       -2.26691800      -1.00303800      -1.64822700
H       -2.36130000       0.72774000      -1.34764100
H       -2.42395800      -0.40815900      -0.00272500
H       -0.03459600      -0.01920100      -1.87686000
H        0.44115700      -2.16719800      -1.04594200
H       -0.50204200      -1.93434600       0.42770600
H        2.24481300      -1.48777200       0.13591500
H        2.25835700       0.73314600      -0.49378700
H        1.97689400       0.90517600       1.24586700
H        0.20438400       1.92236300      -0.57394000
H       -0.74755200       0.37845800       1.89525000
H       -1.64998000       1.63938100       1.05714800
H       -0.15015100       2.03305000       1.88759800
