17
Properties=species:S:1:pos:R:3 pbc="F F F"
C       -2.07468500      -0.07683700       0.72843400
C       -0.56185500      -0.08591700       1.00745900
C        0.12400100       1.21510400       0.55639500
C        0.50826000       1.12113500      -0.91693400
N        1.38907500      -0.03034400      -1.12145700
N        0.96975200      -1.25765900      -0.61758300
C        0.10781600      -1.28889800       0.35098800
H       -2.56551900       0.72961400       1.27156600
H       -2.52975600      -1.01623100       1.03691800
H       -2.27883300       0.05998100      -0.33157000
H       -0.43590600      -0.18576000       2.09998700
H        1.02894700       1.37505100       1.15153300
H       -0.52670900       2.07935500       0.72853300
H        1.03909200       2.02904200      -1.24332500
H       -0.40644600       1.04639000      -1.54101500
H        1.70532100      -0.12804700      -2.09245400
H       -0.16320000      -2.28090300       0.73505800
