16
Properties=species:S:1:pos:R:3 pbc="F F F"
N       -0.83883200       0.70962500      -2.70861400
C       -1.03923100       0.78275500      -1.57752700
C       -1.29411300       0.88617400      -0.13754100
C       -0.73094200      -0.28223500       0.64876400
C        0.57541500      -0.50249100       0.88693800
C        1.67502100       0.38824300       0.37887600
C        1.01940000      -1.69986200       1.68317600
H       -2.37743700       0.94705300       0.01582300
H       -0.87342000       1.83879900       0.21353900
H       -1.46023000      -0.99175100       1.03527500
H        1.29827900       1.34211800       0.01904900
H        2.20350000      -0.09296700      -0.44559300
H        2.41030900       0.57855700       1.16041300
H        0.17420900      -2.30468000       2.00262600
H        1.57581700      -1.39098300       2.56922600
H        1.68749900      -2.32902800       1.09382700
