16
Properties=species:S:1:pos:R:3 pbc="F F F"
C       -0.61673700      -1.08976600       2.77880800
C       -0.93453200      -0.95340400       1.62105600
C       -1.32876400      -0.78970900       0.22105300
C       -0.82509400       0.52697100      -0.39668600
C        0.69440100       0.58635500      -0.47580700
C        1.38733800       1.41391700      -1.50322400
N        1.32883500      -0.04244200      -1.63736900
H       -0.33815200      -1.21371000       3.79615300
H       -2.42411800      -0.83308100       0.15523500
H       -0.94578000      -1.63876900      -0.35871900
H       -1.20046700       1.37128500       0.19340600
H       -1.24636900       0.62995200      -1.40118900
H        1.21022800       0.45255900       0.48296300
H        2.35598800       1.85542000      -1.26018500
H        0.80369000       1.97209400      -2.23675400
H        2.22346000      -0.46484800      -1.38052500
