20
Properties=species:S:1:pos:R:3 pbc="F F F"
C        1.09952000      -2.28539200       0.05504700
C        1.51441800      -0.83332600       0.26821100
C        0.36662200       0.04106200       0.76199200
C        0.37763700       1.53237200       0.49793900
C       -0.66204600       0.63865400      -0.15517100
C       -2.10033700       0.73730600       0.32766200
N       -0.57462400       0.37560900      -1.59136200
H        1.94261600      -2.88388300      -0.28489300
H        0.31039500      -2.35852700      -0.68949700
H        0.72809000      -2.72471800       0.97885700
H        1.92178200      -0.42744800      -0.66377100
H        2.33281500      -0.79410300       0.99739500
H       -0.00151300      -0.24451900       1.74954600
H        1.18015600       1.91776500      -0.12277800
H        0.07552900       2.19134600       1.30613200
H       -2.14283800       0.90587800       1.40104800
H       -2.64935000      -0.17645400       0.10467800
H       -2.62259400       1.55956600      -0.16229200
H        0.39348300       0.29852200      -1.89041400
H       -1.02109400       1.12326500      -2.11855500
