13
Properties=species:S:1:pos:R:3 pbc="F F F"
C       -2.51746500       0.24716200       0.00241900
C       -1.02924800       0.15619200       0.00103100
C       -0.24104000      -0.94299800       0.00023600
C        1.17046600      -0.45632800      -0.00114200
N        2.26934300      -1.13045400      -0.00227800
N        1.14769600       0.97772600      -0.00106400
C       -0.10350600       1.32488300       0.00016500
H       -2.97727400      -0.73818500       0.00369600
H       -2.87404000       0.79111500      -0.87404700
H       -2.87234000       0.79264700       0.87861400
H       -0.56429900      -1.97782200       0.00052200
H        2.10859800      -2.14471600      -0.00216500
H       -0.41516700       2.37258200       0.00051800
