15
Properties=species:S:1:pos:R:3 pbc="F F F"
C       -1.99603600       0.41314200      -0.00303200
N       -0.55489500       0.41622700       0.00003800
C        0.26019300       1.53157600       0.00616400
C        1.55882500       1.04906500       0.00772800
N        1.55627100      -0.32536700       0.00277400
C        0.25999600      -0.68434500      -0.00182400
C       -0.25295700      -2.08623200      -0.00861500
H       -2.36699100       1.43793300      -0.00324300
H       -2.39607400      -0.10076700       0.88050700
H       -2.39217400      -0.09987000      -0.88877600
H       -0.14573300       2.53495600       0.00861100
H        2.47979700       1.62073300       0.01213900
H        0.57491800      -2.78835800      -0.00595900
H       -0.86672900      -2.28749500      -0.89045900
H       -0.87676800      -2.29239100       0.86497200
