20
Properties=species:S:1:pos:R:3 pbc="F F F"
N       -0.67418000      -2.51857800       0.08317400
C       -1.26755400      -1.26793700      -0.39683900
C       -1.18983700      -0.16883400       0.66831800
C        0.25312200       0.25800500       0.99621400
C        0.92349500       1.03002400      -0.12208000
C        1.89335700       0.48705500      -0.87112900
C        0.45954400       2.44451600      -0.33945600
H       -0.72991000      -3.23929700      -0.63132200
H       -1.15585300      -2.84876200       0.91558400
H       -2.33029800      -1.40506700      -0.69328400
H       -0.73190800      -0.95157900      -1.30195600
H       -1.66922800      -0.52508300       1.58764000
H       -1.76750500       0.69980100       0.33383000
H        0.83942500      -0.63407200       1.23114300
H        0.23632700       0.88101200       1.89941900
H        2.22580000      -0.52995000      -0.70551300
H        2.36988300       1.04812200      -1.66602200
H        0.62556100       3.04632700       0.55528800
H       -0.61027300       2.47823600      -0.54929300
H        0.98446400       2.91337500      -1.16790400
