18
Properties=species:S:1:pos:R:3 pbc="F F F"
C       -3.09708000       0.04185700      -1.17324200
C       -1.60190800       0.01111600      -1.21573700
C       -0.81544600       0.01463600      -0.13106300
C        0.68552100      -0.01688300      -0.18185900
C        1.45043700       1.03912700       0.65257900
N        2.26405000      -0.02354900       1.27509300
C        1.40726900      -1.07338500       0.68986500
H       -3.48424600       0.91657000      -1.69906800
H       -3.46727600       0.06722800      -0.15096300
H       -3.51874200      -0.83509100      -1.66768300
H       -1.14719300      -0.01631000      -2.20650300
H       -1.27112200       0.04142300       0.85979600
H        1.02725700      -0.04191600      -1.22589200
H        0.81717000       1.58722300       1.36928600
H        2.03759800       1.77791300       0.08292900
H        2.26962800      -0.00583800       2.29694700
H        0.75259600      -1.56971100       1.42494700
H        1.96323200      -1.85546400       0.14728400
