15
Properties=species:S:1:pos:R:3 pbc="F F F"
C        0.01761700       0.21215300       2.51586500
C        0.00251800       1.28272000       1.43288400
C        0.23168700       0.79055200       0.00543000
N        1.28696300      -0.17139800      -0.30322600
C       -0.11274300      -0.60194500      -0.44360100
C       -0.60963200      -0.84183000      -1.78959500
N       -1.05702800      -1.03338300      -2.83370800
H       -0.08099000       0.67056700       3.49676200
H        0.94841800      -0.35236100       2.50750400
H       -0.80415200      -0.49093800       2.39509000
H        0.76671000       2.03492100       1.66197500
H       -0.95596800       1.81335600       1.46616500
H        0.13572800       1.58137100      -0.74781000
H        1.69257200      -0.56015700       0.55228700
H       -0.48855000      -1.31319300       0.30067000
