20
Properties=species:S:1:pos:R:3 pbc="F F F"
C        1.51330900       2.25883800      -0.35944000
C        1.01054600       0.95279700       0.19317200
C        0.08125300       0.17059000      -0.38565900
C       -0.38264100      -1.16117000       0.21200100
N       -1.85463900      -1.13270900       0.39141300
C        0.33276600      -1.57129200       1.51359600
C       -0.58398400       0.52827000      -1.68938200
H        2.28495800       2.67315300       0.28434100
H        0.71659300       3.00018500      -0.43779700
H        1.94160700       2.14131600      -1.35578700
H        1.44671900       0.64372400       1.14066000
H       -0.17318100      -1.94632800      -0.54291200
H       -2.11074500      -0.40584900       1.05567200
H       -2.17693400      -2.02456600       0.76006700
H        0.15534800      -0.85359300       2.31217100
H        1.40719300      -1.65912600       1.36762100
H       -0.03701100      -2.53822400       1.85032700
H       -0.15824400       1.42394600      -2.13341200
H       -1.65135700       0.69453300      -1.54012400
H       -0.48996500      -0.28840600      -2.40644200
