20
Properties=species:S:1:pos:R:3 pbc="F F F"
C       -0.82803700       1.53395100       2.72291200
C       -0.92262200       0.64827000       1.48723700
C        0.08929700       1.03909500       0.40121700
C       -0.01327300       0.15786200      -0.83691200
C        1.15197300      -0.04218400      -1.75207400
N        0.72944700      -1.10896900      -0.83813900
C        0.06194800      -2.25887200      -1.45004700
H       -1.56015800       1.23592700       3.47048700
H       -1.01003600       2.57733800       2.47203200
H        0.15901700       1.46898900       3.17658100
H       -1.93694700       0.70224200       1.07594100
H       -0.76158700      -0.39594900       1.77199900
H        1.10390600       0.97971700       0.80683200
H       -0.07068900       2.08749400       0.11855100
H       -1.00623600       0.13113200      -1.30868600
H        2.11374600       0.41872600      -1.51909900
H        0.95904200      -0.18686000      -2.81802200
H        0.80889000      -2.97621900      -1.80345200
H       -0.57917100      -1.98457500      -2.30400100
H       -0.56162900      -2.76390900      -0.70618500
