18
Properties=species:S:1:pos:R:3 pbc="F F F"
C       -2.89745100       0.49223900      -0.45470900
C       -1.40249700       0.51997900      -0.42924500
C       -0.66876200       0.56714300       0.69154400
C        0.82303000       0.59185700       0.72324900
N        1.55896300       0.59574800      -0.54744100
C        1.68152000      -0.57999800       0.31642100
C        1.10717700      -1.88817800      -0.17911000
H       -3.26381200      -0.39428600      -0.97589700
H       -3.29410400       1.35715800      -0.98998400
H       -3.31592100       0.49358400       0.54950500
H       -0.89315900       0.51069700      -1.39189300
H       -1.16638900       0.59044400       1.66195500
H        1.24576000       1.22114200       1.52029800
H        2.39088800       1.18641600      -0.48335500
H        2.63765800      -0.67608300       0.85098900
H        0.13174100      -1.73724800      -0.63453100
H        0.99600100      -2.59798200       0.64028700
H        1.76048800      -2.34232300      -0.92417700
