18
Properties=species:S:1:pos:R:3 pbc="F F F"
C       -1.04999400       0.52036200       1.91895600
C       -1.47994800       0.62696300       0.47138900
N       -0.64688200       1.38099900      -0.47863100
C       -0.75698800      -0.07416800      -0.63796500
C        0.42585100      -0.99425500      -0.40439500
C        1.76361200      -0.51579000       0.07190300
C        1.59934200      -0.97537300      -1.34109200
H       -1.29301100       1.43258300       2.46382700
H        0.02090600       0.35394500       2.00670800
H       -1.56033800      -0.30332300       2.41795700
H       -2.55568000       0.79692800       0.33550000
H        0.24719700       1.62768600      -0.04682000
H       -1.36690900      -0.36527500      -1.50503800
H        0.13748400      -1.98762700      -0.05005300
H        2.31484300      -1.15504700       0.75440100
H        1.90970800       0.54622700       0.24384000
H        2.04810600      -1.92201100      -1.62565000
H        1.61461700      -0.21751600      -2.11703700
