19
Properties=species:S:1:pos:R:3 pbc="F F F"
N       -1.85012200      -0.66740200      -0.63079000
C       -0.40084600      -0.50661600      -0.76969300
C        0.45841300      -1.62523300      -0.14614100
C        1.31512900      -0.58051400       0.58276100
C        0.28891600       0.53214900       0.16984600
C       -0.57451200       1.01989100       1.33692300
N        0.84812100       1.69332500      -0.54809500
H       -2.17275600      -1.46587300      -1.17235100
H       -2.33259500       0.16463500      -0.96216500
H       -0.10843500      -0.32514400      -1.82864100
H        0.99170000      -2.26992200      -0.85034200
H       -0.10724600      -2.26089400       0.53741700
H        2.30116500      -0.44442800       0.13150600
H        1.45012000      -0.74362000       1.65478300
H       -1.03693700       0.18268700       1.85273600
H       -1.36348400       1.68077900       0.98432300
H        0.02896800       1.57282400       2.05631100
H        1.48193200       1.39108200      -1.28427800
H        1.35898300       2.29834700       0.09072200
