20
Properties=species:S:1:pos:R:3 pbc="F F F"
C       -2.23564700      -0.44158900      -0.66706900
C       -0.72505200      -0.31895400      -0.82539400
C        0.15112100      -1.41521900      -0.18245800
C        1.06180300      -0.32815300       0.41528200
C        0.00153500       0.75633000       0.03076000
C        0.48668200       2.01479400      -0.67795100
N        1.41791100      -0.49110200       1.82622700
H       -2.61442100      -1.30600000      -1.21029900
H       -2.74032300       0.44316300      -1.05177400
H       -2.51423000      -0.55698400       0.37898000
H       -0.47935300      -0.19785900      -1.89004900
H        0.62206600      -2.12306000      -0.87016800
H       -0.37961400      -1.98507500       0.58344300
H        1.98929200      -0.20563200      -0.16841700
H       -0.60556200       1.03373600       0.90369700
H        1.10593900       1.76774700      -1.53882600
H        1.07994300       2.63612000      -0.00837700
H       -0.35191000       2.61281300      -1.03200200
H        0.58439200      -0.60166400       2.39865600
H        1.93575400       0.31715500       2.16252000
