19
Properties=species:S:1:pos:R:3 pbc="F F F"
C       -2.12742900       0.14088100      -0.95794800
C       -0.64301300      -0.04091400      -0.66135300
C       -0.30112900       0.00319000       0.83198200
C        1.19531800      -0.04500300       1.15215500
N        1.41579500       0.10544500       2.59484600
C        0.16408100      -0.85409500      -1.62525600
N        0.30407200       0.60551100      -1.58487600
H       -2.71981000      -0.64516300      -0.48989200
H       -2.32257100       0.11593500      -2.02824000
H       -2.48924100       1.09392000      -0.57221700
H       -0.81191200      -0.82237600       1.34213600
H       -0.72578700       0.92067700       1.25994100
H        1.72220800       0.73546500       0.56902000
H        1.61936500      -1.00922700       0.83721300
H        1.04247200       0.99294200       2.92223100
H        2.40914600       0.07537600       2.80906300
H       -0.33478600      -1.27827100      -2.49940500
H        1.03681100      -1.41393900      -1.28697800
H       -0.19192800       1.03361300      -2.37015300
