19
Properties=species:S:1:pos:R:3 pbc="F F F"
C       -2.83365200      -0.02868100       0.38989200
C       -1.36392700      -0.43769200       0.41441600
C       -0.57817400       0.16047500      -0.74663500
N       -0.02595000       1.51903900      -0.62921300
C        0.90254600       0.37811900      -0.70593000
C        1.77446400       0.03588400       0.50473300
N        2.29396300      -1.33971700       0.47810100
H       -3.37453300      -0.47494500       1.22197200
H       -3.31229000      -0.34969900      -0.53321800
H       -2.93823400       1.05168500       0.45971600
H       -1.29417900      -1.53220600       0.37673400
H       -0.91817100      -0.13267200       1.36657500
H       -1.01857900      -0.04168900      -1.73147500
H       -0.10237700       1.84557200       0.33827000
H        1.43078700       0.31711400      -1.66660200
H        2.63063700       0.72488400       0.54351500
H        1.21235800       0.18336200       1.43695400
H        2.87190900      -1.48574200      -0.34602700
H        1.52903900      -2.00954400       0.45252700
