18
Properties=species:S:1:pos:R:3 pbc="F F F"
C       -3.17354600      -0.05403700       0.62757900
C       -1.69187800      -0.22301800       0.53807300
C       -0.90298900       0.49988000      -0.27945000
C        0.55753500       0.37862000      -0.40004500
C        1.22779800       1.19889700      -1.23407100
C        1.26007200      -0.67190000       0.43748700
N        2.68734700      -0.78337300       0.14450200
H       -3.47500700       0.21311400       1.64241800
H       -3.68737300      -0.98601200       0.38366600
H       -3.53059900       0.71919300      -0.04871500
H       -1.25828600      -0.98326400       1.18766200
H       -1.36726600       1.25572000      -0.91375200
H        0.70280900       1.94719900      -1.81624700
H        2.30426500       1.14860900      -1.33011700
H        0.73569400      -1.64431000       0.30476900
H        1.14228900      -0.41922900       1.50343300
H        2.83639700      -1.07113000      -0.81936800
H        3.12370200      -1.46693600       0.75730000
