20
Properties=species:S:1:pos:R:3 pbc="F F F"
C       -1.98012400      -0.12650900       0.83179200
N       -0.52104700      -0.22179200       0.79581000
C        0.08863800      -0.95145800      -0.32824600
C        0.23451000       0.54787200      -0.21778900
C       -0.51191300       1.43183300      -1.21207600
C        1.53820000       1.16391700       0.28104700
C        1.19933700      -1.93712200      -0.02487300
H       -2.38109500      -0.92686900       1.46283600
H       -2.45832200      -0.21373200      -0.15685500
H       -2.28045200       0.82777100       1.27421400
H       -0.61890700      -1.29625400      -1.09674900
H       -1.35918900       0.91872900      -1.66047900
H        0.15376000       1.73946800      -2.01805400
H       -0.88091300       2.33783700      -0.73119400
H        1.98819100       0.56139700       1.06526200
H        1.36270600       2.16016200       0.68606200
H        2.26063100       1.26337400      -0.52929700
H        1.81074600      -1.60416400       0.80961300
H        1.85000000      -2.07360000      -0.88889300
H        0.78828000      -2.91276800       0.23373000
