18
Properties=species:S:1:pos:R:3 pbc="F F F"
C        1.01785000       1.57722000       1.14805500
C        0.17812400       0.32944600       1.11196800
C       -1.00193900       0.25686200       1.74425800
C        0.74847100      -0.85130900       0.34923300
C        0.28721000      -0.96107200      -1.10952400
C       -1.13596400      -0.78289500      -1.50997000
N       -0.12978400       0.21914100      -1.86902900
H        0.49771400       2.39520800       1.64036100
H        1.29604900       1.89619100       0.14334300
H        1.94835100       1.39264900       1.68759900
H       -1.40045000       1.10448900       2.28806700
H       -1.58861800      -0.65336700       1.73695700
H        0.48555300      -1.78401100       0.86341800
H        1.84316100      -0.79198300       0.36245400
H        0.88299900      -1.67239900      -1.69578300
H       -1.86664100      -0.50123500      -0.75017500
H       -1.53891200      -1.36046500      -2.34366700
H       -0.21323900       1.03142700      -1.25349200
