19
Properties=species:S:1:pos:R:3 pbc="F F F"
C       -0.15030900      -0.35929900      -2.38691800
C       -0.29757500      -0.85224100      -0.95374500
C        0.28083100       0.05422900       0.14367100
C        0.06818400      -0.48715900       1.56254400
N       -1.36100700      -0.63931100       1.85464200
C        1.48265200       0.90716000      -0.11003100
N        0.15377200       1.51617700       0.02465200
H       -0.60944200      -1.06624600      -3.07449800
H        0.89435600      -0.25271300      -2.67270900
H       -0.63753300       0.60300900      -2.53368300
H        0.17399400      -1.83884300      -0.86571800
H       -1.35925300      -1.01405300      -0.73784600
H        0.56734100       0.18752000       2.28659200
H        0.55553000      -1.47035100       1.66438500
H       -1.83829600       0.24874900       1.71785600
H       -1.49931800      -0.93602800       2.81743200
H        1.93702800       0.92114600      -1.10194800
H        2.17425200       1.12611500       0.70604200
H       -0.21071100       1.77749600      -0.89409300
