18
Properties=species:S:1:pos:R:3 pbc="F F F"
C       -3.53515600      -1.01486300      -0.29614600
C       -2.04559800      -1.04164300      -0.19368300
C       -1.26999900       0.05905800      -0.13068800
C        0.18273100       0.01677500      -0.02893700
C        0.95448700       1.12012700       0.02420600
C        2.45371800       1.12791900       0.12467000
N        3.02542900      -0.19513700       0.36601900
H       -3.99506300      -1.52193100       0.55490100
H       -3.87529800      -1.53750800      -1.19248700
H       -3.91621800       0.00328800      -0.33026600
H       -1.57759600      -2.02605600      -0.16948600
H       -1.73715700       1.04414800      -0.15616300
H        0.65110000      -0.96613700      -0.00155700
H        0.48007900       2.10158400      -0.01647900
H        2.75300400       1.86012800       0.90992900
H        2.88001500       1.52852700      -0.81199200
H        2.67883600      -0.58226200       1.24003000
H        4.03919500      -0.14206200       0.41490000
