16
Properties=species:S:1:pos:R:3 pbc="F F F"
C       -1.39481500       1.12688800       2.45775200
C       -0.06850200       1.00932600       2.28721800
C        0.61058200       0.47626900       1.10759200
C        0.00611000       0.00932400      -0.00596000
C        0.74121900      -0.52665700      -1.17404900
C        0.15273000      -1.64837700      -1.97938700
N        0.18750100      -0.30136100      -2.52365500
H       -1.80353000       1.53540600       3.37310400
H       -2.09985400       0.82177800       1.69324100
H        0.58813100       1.33471700       3.09398200
H        1.69962800       0.45945700       1.15230300
H       -1.08220600       0.01839100      -0.07614300
H        1.83355100      -0.46156400      -1.12320300
H       -0.81967000      -2.05114800      -1.68751300
H        0.82213400      -2.36598600      -2.45648300
H       -0.73463800       0.13784100      -2.46270200
