18
Properties=species:S:1:pos:R:3 pbc="F F F"
C       -2.02376000      -0.11300700       1.32571300
C       -0.54406000      -0.04249200       0.92672200
C       -0.23640900       1.22276900       0.08943300
N        1.12359400       1.19882500      -0.47533800
C        1.32913600       0.05273800      -1.37840800
C        0.74417000      -1.23835300      -0.85595600
C       -0.10590800      -1.28300200       0.17520300
H       -2.31333800       0.76763600       1.89687400
H       -2.22169200      -0.99123400       1.93790800
H       -2.66492200      -0.16667400       0.44785300
H        0.04763900       0.01231900       1.86059900
H       -0.34572100       2.12446500       0.71009900
H       -0.95847400       1.30814100      -0.73449400
H        1.79910200       1.14129500       0.29168100
H        2.40993000      -0.06182500      -1.55081100
H        0.88889800       0.27790100      -2.36777100
H        1.02181800      -2.15659500      -1.37356500
H       -0.50741100      -2.23912900       0.51273800
