19
Properties=species:S:1:pos:R:3 pbc="F F F"
C       -2.16781800       1.34277100       0.24268200
C       -0.66497100       1.19356000       0.14058100
N       -0.02141100       1.66349600      -1.09619900
C       -0.02970900       0.22271500      -0.80124800
C        1.29049200      -0.46006900      -0.46750600
C        1.10835800      -1.85200600       0.15103000
N        0.41205200      -1.78227600       1.43738300
H       -2.44193100       2.35555800       0.53818000
H       -2.57820000       0.65951000       0.98579200
H       -2.64386800       1.13203500      -0.71182100
H       -0.11656100       1.40942900       1.06703200
H        0.89645800       2.06554300      -0.89054600
H       -0.69166800      -0.35538200      -1.45712600
H        1.89228400      -0.55869300      -1.37991700
H        1.86938600       0.17218100       0.21623400
H        2.10360600      -2.33711900       0.24654700
H        0.52242500      -2.48655800      -0.52987600
H        0.92405200      -1.19725700       2.09259000
H        0.31142200      -2.70960200       1.84138600
