18
Properties=species:S:1:pos:R:3 pbc="F F F"
C        0.63207500       1.69066400       1.28065400
C        1.49219200       0.67035800       0.52592300
N        0.37809800      -0.30452700       0.57796400
C       -0.54782100       0.73077900       1.08283500
C        0.06809200      -1.07752500      -0.61875300
C       -1.33677000      -1.45964800      -0.93774200
C       -0.61263800      -0.48422500      -1.82783500
H        0.53351500       2.67230300       0.81079200
H        0.92244100       1.83632200       2.32400100
H        2.41353000       0.32783800       1.02744800
H        1.76189700       0.98597700      -0.49678300
H       -1.10057600       0.43109100       1.98987800
H       -1.28540600       1.08373300       0.34222700
H        0.83648700      -1.83167700      -0.82769000
H       -2.13218500      -1.06454400      -0.31405100
H       -1.52790300      -2.45453100      -1.32846700
H       -0.92925300       0.55256300      -1.79245800
H       -0.31001100      -0.82979500      -2.81112500
