19
Properties=species:S:1:pos:R:3 pbc="F F F"
C       -1.78360700      -1.30669100       0.55543700
C       -0.44698600      -1.43019600      -0.16506400
C        0.40798200      -0.12906600      -0.25247800
N        1.65569400      -0.39421700      -1.00033900
C       -0.31041700       1.15475500      -0.74243500
N        0.07899800       1.85997400       0.49921000
C        0.66906800       0.63034300       1.07399000
H       -2.28936600      -2.26980300       0.58190300
H       -2.44383100      -0.60143200       0.05479700
H       -1.65511000      -0.97208000       1.58278900
H       -0.62443600      -1.79429200      -1.18384900
H        0.15413200      -2.20254700       0.32895800
H        1.44634400      -0.71121100      -1.94463900
H        2.20496300      -1.11402900      -0.53540600
H       -1.39953300       1.06028000      -0.87734800
H        0.10590600       1.61357800      -1.65238500
H       -0.71203400       2.22714300       1.03198900
H        0.12614300       0.24362100       1.95118700
H        1.72773300       0.74560200       1.35319900
