18
Properties=species:S:1:pos:R:3 pbc="F F F"
C       -3.13917200       0.57592600       0.17944500
C       -1.65829700       0.68512100      -0.00559700
C       -0.87818500      -0.32032500      -0.42277200
C        0.60812100      -0.23514400      -0.64593500
C        1.44435300       0.80581400       0.12319000
N        2.39162000      -0.25098500       0.53520500
C        1.49548700      -1.30798400       0.02424300
H       -3.42362300       0.82022000       1.20435300
H       -3.49682300      -0.42660400      -0.04422500
H       -3.66611400       1.27804500      -0.46928000
H       -1.21625300       1.65605300       0.21869000
H       -1.33585900      -1.28538400      -0.64884400
H        0.80720200      -0.18845400      -1.72991700
H        0.91672100       1.27544000       0.96914100
H        1.90347900       1.60876600      -0.47658700
H        2.55752900      -0.29440700       1.54291700
H        0.98842500      -1.87823900       0.81944900
H        1.99014000      -2.02898700      -0.64758400
