20
Properties=species:S:1:pos:R:3 pbc="F F F"
C        1.07980100      -2.62963800       0.50091700
C        0.90337900      -1.48911300       1.45364300
C        0.11952700      -0.41357600       1.29063900
C       -0.75955800      -0.10811600       0.10902300
C       -0.17258100       0.99442900      -0.83409500
N       -1.00641800       1.16261000      -2.03906400
C       -0.02350900       2.34253700      -0.12363000
H        0.89199100      -3.58081100       1.00144700
H        2.10636700      -2.66558000       0.13081200
H        0.41638700      -2.55953600      -0.35719500
H        1.48691000      -1.56041500       2.37195600
H        0.11465200       0.33328500       2.08503300
H       -1.74122000       0.22543000       0.46740800
H       -0.93303400      -1.01142300      -0.48402700
H        0.82598600       0.65953000      -1.16748300
H       -1.92966800       1.50896700      -1.78879800
H       -1.11685100       0.27622000      -2.52556100
H       -0.98561800       2.70479400       0.23575200
H        0.38027000       3.08861700      -0.80419900
H        0.64640300       2.26351200       0.72931400
