18
Properties=species:S:1:pos:R:3 pbc="F F F"
C       -1.98878600      -0.19232500      -1.01328400
C       -0.46473900      -0.20032400      -0.92290300
C        0.14470700      -1.32911000      -0.03581500
C        0.96812900      -0.44062300       0.91118900
C       -0.03521400       0.65546800       1.30843600
C        0.16657600       1.00250700      -0.17649600
N        1.60079100       0.53110500      -0.06253300
H       -2.35263800      -1.09258900      -1.50555300
H       -2.33823100       0.66415800      -1.58854200
H       -2.45197200      -0.14370000      -0.02928900
H       -0.05674800      -0.25910500      -1.94243700
H        0.76425200      -2.02416500      -0.60870200
H       -0.61535400      -1.91334100       0.49199900
H        1.63232100      -0.92977100       1.64097900
H        0.38867900       1.40245800       1.98379600
H       -1.03075700       0.36040100       1.65665400
H       -0.00395300       2.01419700      -0.57705100
H        2.11482800       1.23016700       0.48910200
