16
Properties=species:S:1:pos:R:3 pbc="F F F"
C       -1.22897900       1.26016400       1.04365100
C        0.26564900       1.02239700       1.04871800
C        1.15288200       1.65967200       0.01841900
C        0.94997700       0.17145400       0.01289100
C        0.18732500      -0.48866800      -1.13186200
C       -0.41179300      -1.76759400      -0.74470700
N       -0.88308600      -2.77457800      -0.44773500
H       -1.47938800       2.13535200       1.64199400
H       -1.76166800       0.40868300       1.46517800
H       -1.60559300       1.42881800       0.03727300
H        0.69293100       0.94921700       2.05031700
H        2.11957000       2.04181100       0.33157500
H        0.67660100       2.23437600      -0.76968700
H        1.79043100      -0.42330200       0.37404000
H        0.86363300      -0.66956200      -1.97842400
H       -0.60528400       0.17210400      -1.50077800
