20
Properties=species:S:1:pos:R:3 pbc="F F F"
C        1.42779400       1.68223400      -0.71189200
C        0.88687400       0.33726900      -0.20082100
C       -0.62949800       0.31789900      -0.24652800
C       -1.34803600      -0.56717300      -0.94786200
C       -2.84378200      -0.58450700      -1.00316200
C        1.40379800       0.05764000       1.23066400
N        1.06401500      -1.30128300       1.65281800
H        2.51647200       1.68688000      -0.70974600
H        1.08875700       2.50554300      -0.08519100
H        1.09167800       1.87626800      -1.72794100
H        1.26382900      -0.46012800      -0.85898500
H       -1.14345400       1.08526300       0.33417600
H       -0.83488200      -1.33377600      -1.52895900
H       -3.27584100       0.19932000      -0.38510300
H       -3.23566900      -1.54446300      -0.66279700
H       -3.19658700      -0.44533500      -2.02669900
H        0.99611600       0.82456300       1.92371900
H        2.49813600       0.17435800       1.25186600
H        0.06312800      -1.46062400       1.56429400
H        1.33730400      -1.45906700       2.61924000
