18
Properties=species:S:1:pos:R:3 pbc="F F F"
C       -0.14860500       0.94766200       2.51214600
C       -0.51597600       0.92639900       1.04377600
C        0.32358400       1.67695500       0.04383700
C        0.32894800       0.17595700       0.05390700
N       -0.34532400      -0.51670200      -1.04105400
C        0.51699800      -1.23280500      -1.98415400
C       -0.31419800      -1.98039700      -1.00058600
H       -0.53339700       1.84206200       3.00207200
H        0.93107200       0.93266300       2.64718600
H       -0.56300900       0.08492400       3.03385300
H       -1.58823200       0.92858000       0.84639000
H        1.20710500       2.19297600       0.40706800
H       -0.19120300       2.17619000      -0.77010000
H        1.24013100      -0.30995900       0.44273500
H        1.59636500      -1.18796600      -1.81903300
H        0.21114900      -1.18974500      -3.03109200
H        0.18878900      -2.45426100      -0.15398800
H       -1.22600600      -2.48117700      -1.33127000
