16
Properties=species:S:1:pos:R:3 pbc="F F F"
C       -1.16126200       1.21019500       0.92277500
C        0.34505900       1.05160100       0.92787000
C        1.20012700       1.62024200      -0.15907200
N        1.04010400       0.16951700      -0.02301000
C        0.25670000      -0.51413500      -1.06627200
C       -0.45212900      -1.68760900      -0.54140300
C       -1.05746000      -2.65862200      -0.15357500
H       -1.45495500       2.04435500       1.55917500
H       -1.64834700       0.31496600       1.30699700
H       -1.54843300       1.40254400      -0.07510300
H        0.78258300       1.01377600       1.93418000
H        2.19660900       2.00577400       0.06668800
H        0.70542200       2.09965600      -1.00824100
H        0.94926900      -0.84385200      -1.86079700
H       -0.47706100       0.15804200      -1.55837100
H       -1.57202300      -3.51190900       0.21460500
