18
Properties=species:S:1:pos:R:3 pbc="F F F"
C       -0.92850300       1.40660000      -1.41520300
C       -1.34853400       0.95705000      -0.22919600
C       -0.55456800       0.37222300       0.88895600
C        0.91459200       0.03614800       0.90874300
N       -0.08159500      -1.04374300       0.86910700
C       -0.24547200      -1.81881400      -0.36030800
C        1.90679000       0.28232700      -0.20962000
H       -1.63747600       1.80747900      -2.12990800
H        0.11142800       1.40271700      -1.71193400
H       -2.41720000       1.02564800      -0.01244300
H       -0.98575400       0.62782000       1.86869700
H        1.38141500       0.12797200       1.90171200
H        0.56123400      -2.55409300      -0.43581900
H       -0.24779300      -1.21440000      -1.27890300
H       -1.19286800      -2.36568900      -0.31850200
H        1.54424700      -0.05247000      -1.17692300
H        2.83353400      -0.25305800      -0.00290500
H        2.15457200       1.34106500      -0.28704900
