20
Properties=species:S:1:pos:R:3 pbc="F F F"
C       -1.64712600      -0.28875800       0.44371600
C       -0.15630300      -0.18434800       0.08317800
C        0.07860300      -0.24693000      -1.44742500
C       -0.51316800       0.92805900      -2.21551800
C        0.59364700       0.95413000       0.82955300
C        1.27648800      -0.13952000       1.65730000
N        0.67922100      -1.19876900       0.81498600
H       -2.21430100       0.54166500       0.02796000
H       -1.78655100      -0.27991200       1.52323200
H       -2.07455200      -1.21263800       0.05715500
H       -0.33676100      -1.18358000      -1.83394900
H        1.15644100      -0.28939800      -1.63033300
H       -1.59865900       0.94802500      -2.14245900
H       -0.25374500       0.86645200      -3.27045700
H       -0.13609800       1.87562700      -1.83486200
H       -0.03392600       1.65039200       1.39127200
H        1.27435900       1.53300000       0.20089400
H        0.95207300      -0.17836300       2.70973000
H        2.37834600      -0.13899600       1.64723600
H        0.12597700      -1.87669000       1.34486100
