20
Properties=species:S:1:pos:R:3 pbc="F F F"
C       -1.75130900       0.27493900       1.14866400
C       -0.24952000       0.11370400       1.03919400
C        0.58202400       0.90118200       0.03710500
C        0.42414700      -0.60776600      -0.09893400
C       -0.37323700      -1.21507000      -1.23999700
N        1.57706400      -1.44470700       0.26112000
C       -0.03483700       1.89747800      -0.92285300
H       -2.00376400       1.13538300       1.76851300
H       -2.20127100      -0.60454500       1.60924800
H       -2.22004800       0.41795800       0.17828300
H        0.23533000      -0.01653800       2.00949000
H        1.55056800       1.22520500       0.42494100
H       -1.23471700      -0.60833600      -1.50437700
H       -0.72950000      -2.20893700      -0.97258500
H        0.24860500      -1.32061900      -2.12935400
H        2.08023600      -1.04943100       1.05113200
H        2.21895900      -1.53018700      -0.52456500
H       -0.99525200       1.55909800      -1.30311700
H        0.62011200       2.06645400      -1.77787200
H       -0.19231600       2.86063900      -0.43664900
