20
Properties=species:S:1:pos:R:3 pbc="F F F"
N       -2.10735000      -0.04413400      -0.26481600
C       -0.64950300       0.00225900      -0.40704000
C        0.13604400      -1.10428500       0.34265200
C        0.79790900      -2.19577500      -0.49017700
C        1.04985500      -0.01698400       0.94743800
C        0.07806500       1.07283500       0.44625500
C        0.67770100       2.27182600      -0.27889200
H       -2.48754700      -0.85901200      -0.74061600
H       -2.53318300       0.79002900      -0.66207800
H       -0.33994800       0.06172300      -1.47521700
H       -0.49059900      -1.56299600       1.11878000
H        1.41982300      -1.76993800      -1.27594900
H        0.05197800      -2.83286500      -0.96331500
H        1.43159500      -2.82833300       0.12957500
H        2.02906900       0.03164700       0.46445800
H        1.20536500      -0.06462100       2.02881000
H       -0.56933500       1.42208900       1.26128900
H        1.31754400       1.95598600      -1.10129700
H        1.27963500       2.87623000       0.39793600
H       -0.10337000       2.90973500      -0.69008700
