14
Properties=species:S:1:pos:R:3 pbc="F F F"
C       -1.25001700       1.59416400      -2.09579000
C        0.22274600       1.54119200      -1.83347600
C        0.82057300       0.81035800      -0.86703000
C        0.12378100      -0.04604600       0.07506200
C        0.75956100      -0.76579200       1.03018500
C        0.07222300      -1.61177600       1.95772200
N       -0.45960400      -2.30293900       2.71690900
H       -1.47278600       2.26491300      -2.92103900
H       -1.80051500       1.94425100      -1.22147400
H       -1.64736300       0.61020300      -2.34899600
H        0.85540600       2.14582300      -2.48133900
H        1.90536800       0.85477000      -0.77432400
H       -0.96053700      -0.10526900      -0.00058100
H        1.84445400      -0.72672000       1.12935200
