14
Properties=species:S:1:pos:R:3 pbc="F F F"
C       -0.50639700       2.28855700       1.72487000
C       -0.92421200       1.29687200       0.93407100
C       -0.06272800       0.61209700      -0.06279400
C       -0.65996500       0.08786600      -1.33725800
C       -0.23347000      -0.88434500      -0.27685800
C        0.94290500      -1.70275600      -0.48679300
N        1.87607600      -2.36039200      -0.64568300
H       -1.17561600       2.75791600       2.43427700
H        0.51250300       2.65475900       1.68053000
H       -1.95521300       0.94801400       1.00023500
H        0.95898800       0.98496800      -0.12981700
H       -0.06000900       0.14843800      -2.23912600
H       -1.72717300       0.21631100      -1.49022600
H       -1.02281200      -1.37740700       0.29247200
