18
Properties=species:S:1:pos:R:3 pbc="F F F"
C       -2.08713600      -0.00961800      -0.93053200
C       -0.57297400      -0.00013200      -0.77085300
C        0.07005300      -1.00362700       0.22463400
N        1.52954200      -0.75872600       0.04623200
C        1.53918600       0.73766000       0.02962400
C        0.04129700       1.00324200       0.24304300
C       -0.27012200      -0.01830600       1.35017400
H       -2.40786900      -0.88372300      -1.49648800
H       -2.42228400       0.87274200      -1.47481500
H       -2.60708500      -0.02514900       0.02468200
H       -0.10483100       0.01650200      -1.76809600
H       -0.19855700      -2.07100400       0.26374700
H        1.84675700      -1.12652000      -0.85605500
H        1.92201200       1.13091300      -0.92442000
H        2.17117000       1.14685500       0.83472900
H       -0.29078900       2.04893700       0.30601900
H       -1.31560800      -0.03488400       1.66077100
H        0.37846300      -0.01890000       2.22976300
