18
Properties=species:S:1:pos:R:3 pbc="F F F"
C       -3.06162200      -0.89822300      -0.07031800
C       -1.56639700      -0.84870100      -0.10495200
C       -0.86082200       0.20525300      -0.53459300
C        0.64052700       0.28448200      -0.60731500
C        1.33070600       1.45856300       0.12441800
N        2.28529400       0.51562700       0.74135500
C        1.50941600      -0.64641800       0.25995300
H       -3.43772100      -1.72098900      -0.68078200
H       -3.50065900       0.02657600      -0.43765400
H       -3.42334200      -1.06845900       0.94529000
H       -1.04825900      -1.74124700       0.24598300
H       -1.39620900       1.08924300      -0.88654100
H        0.95014600       0.25238300      -1.66550200
H        0.68671800       1.97474800       0.85462100
H        1.80449600       2.22507200      -0.51092500
H        2.34349000       0.58633000       1.75943800
H        0.95975900      -1.16700500       1.06074600
H        2.11367400      -1.39577500      -0.27731800
