19
Properties=species:S:1:pos:R:3 pbc="F F F"
N       -1.23728000      -0.38125900       2.10580600
C       -0.00303000      -1.01102400       1.63277400
C        0.47813600      -0.44791400       0.29838500
C        0.16673200       0.96933300      -0.13539900
C       -0.47587900      -0.18151300      -0.85102100
C       -0.09580500      -0.57073700      -2.26471000
N        1.16315400       1.79839900      -0.80037700
H       -1.50271300      -0.75944800       3.01124700
H       -2.00000600      -0.54599000       1.45361600
H       -0.11360500      -2.11604100       1.54764100
H        0.77742100      -0.84932700       2.39371900
H        1.45553200      -0.82883400      -0.00428900
H       -0.48478100       1.54396600       0.52883500
H       -1.53499500      -0.33342800      -0.63101500
H        0.98003700      -0.51863400      -2.41986700
H       -0.57060500       0.08467700      -2.99486300
H       -0.41076900      -1.59073800      -2.48464600
H        1.68016700       1.26409000      -1.49298700
H        1.82228300       2.18085500      -0.12557300
