16
Properties=species:S:1:pos:R:3 pbc="F F F"
C       -2.52388900       0.48707300       0.61268700
C       -1.03161400       0.38752500       0.37754000
N       -0.48733500       1.04964600      -0.81619700
C       -0.47021700      -0.41580900      -0.75200700
C        0.86682000      -1.15052300      -0.64250400
C        1.83328300      -0.49982100       0.24212300
C        2.64415100       0.03386200       0.96165700
H       -2.78204600       1.43359900       1.08634000
H       -2.87134500      -0.31362100       1.26540800
H       -3.07006700       0.42196100      -0.32508400
H       -0.41312500       0.45892900       1.28036400
H        0.44563200       1.42205400      -0.61905500
H       -1.17628000      -0.89688800      -1.43987700
H        0.69599000      -2.17782700      -0.28879200
H        1.31464700      -1.24632000      -1.64227300
H        3.35673400       0.49674500       1.59936800
