20
Properties=species:S:1:pos:R:3 pbc="F F F"
C        1.70543300      -1.55545000      -1.10014500
C        1.07870400      -1.32291900       0.26945000
C       -0.23067900      -0.52681200       0.19722500
C       -0.88599500      -0.12684200       1.53745800
C       -1.02845900       1.32002200       1.04713200
C       -0.14915000       0.99133400      -0.17326400
N       -0.67157000       1.42348300      -1.47145700
H        2.62347300      -2.13335800      -1.01506800
H        1.94823900      -0.61163300      -1.58474300
H        1.02653500      -2.09949200      -1.75412100
H        1.79245300      -0.79552800       0.91214600
H        0.88831700      -2.28911000       0.75112600
H       -0.94524200      -1.05334700      -0.45123400
H       -0.21071200      -0.22610500       2.39112100
H       -1.81868300      -0.64125200       1.78426100
H       -0.65154800       2.09380300       1.72127000
H       -2.05379600       1.57925400       0.77454700
H        0.87627400       1.38101600      -0.05976500
H       -1.62147800       1.08606600      -1.60775900
H       -0.09196600       1.06930900      -2.22871900
