20
Properties=species:S:1:pos:R:3 pbc="F F F"
C       -0.46160200       1.05198700      -2.63876000
C        0.12578600       0.85830100      -1.24397100
C       -0.89373800       0.29022100      -0.26420900
N       -1.14101000      -1.16118500      -0.23282400
C       -0.51992000      -0.51932000       0.93722700
C        0.91580800      -0.87042600       1.30731400
C        1.53715000       0.13332400       2.27316000
H        0.27683500       1.47583900      -3.31635800
H       -1.31772300       1.72323400      -2.61158700
H       -0.79592300       0.10392100      -3.05422600
H        0.49352100       1.82189100      -0.87019100
H        0.99681400       0.19832700      -1.30670900
H       -1.81381200       0.88406000      -0.18910300
H       -0.43005700      -1.64818000      -0.78527600
H       -1.19426500      -0.45243300       1.80080300
H        0.93070600      -1.86574600       1.76794000
H        1.53226900      -0.94536400       0.40551100
H        0.95874400       0.19808200       3.19272500
H        1.57737900       1.12887300       1.83590700
H        2.55167100      -0.15873300       2.53577100
