17
Properties=species:S:1:pos:R:3 pbc="F F F"
N       -1.38582600      -0.81621700       1.59968000
C       -0.18777500      -1.36737200       2.23374100
C       -0.07802400      -0.26772800       1.23319600
C        0.41926100      -0.52751000      -0.18559700
C       -0.12326200       0.48983600      -1.18344100
N        0.57716800       1.76677900      -1.35756500
C        0.61159400       0.78617100      -2.44509900
H       -1.87858700      -0.18984400       2.23969600
H        0.06064800      -2.39026800       1.94671700
H       -0.02963200      -1.13906300       3.28985800
H        0.14674500       0.73312700       1.62400400
H        1.51662100      -0.50496200      -0.20171300
H        0.12140000      -1.53761000      -0.48850600
H       -1.21505300       0.57917900      -1.19790200
H        1.46400800       1.76407400      -0.84807800
H        1.56232900       0.28266100      -2.63192200
H        0.06135800       1.06839000      -3.34375200
