15
Properties=species:S:1:pos:R:3 pbc="F F F"
C       -1.86536100      -0.21319300       0.60543300
C       -0.50727300       0.04143400       1.21693000
C        0.57138600       0.83872200       0.55410200
N        0.72873700      -0.63146600       0.70196700
C        0.59876800      -1.10698000      -0.64920300
N        0.49903200      -0.21602400      -1.58007700
C        0.49515800       1.11404500      -0.94701800
H       -2.55635400       0.58593700       0.87511200
H       -2.28706000      -1.14734700       0.97660900
H       -1.82091100      -0.26877900      -0.47870300
H       -0.51474600       0.07104700       2.31447600
H        1.22774700       1.45303300       1.17916800
H        0.63587500      -2.18131800      -0.85413200
H       -0.39943600       1.67953900      -1.25546800
H        1.36443600       1.69616200      -1.29175800
