20
Properties=species:S:1:pos:R:3 pbc="F F F"
C       -1.17207500      -0.00567400      -2.21757400
C       -1.04965600      -0.15001300      -0.69674800
C       -0.34909200      -1.45660800      -0.25699400
C        0.51421900      -1.04771100       0.93461800
C        0.91828800       0.39954100       0.61177600
N       -0.25939400       0.95604000      -0.09191300
C        1.30094500       1.23458200       1.83905000
H       -1.75805600      -0.82043300      -2.63876900
H       -0.19415000      -0.01458600      -2.69639900
H       -1.66444700       0.92918700      -2.48017900
H       -2.07841300      -0.13275600      -0.27356000
H        0.28168300      -1.84236500      -1.06507300
H       -1.06306700      -2.24662700      -0.00851000
H        1.37914300      -1.70151800       1.07624800
H       -0.07206200      -1.08026300       1.85853200
H        1.79705700       0.37734100      -0.07441900
H        0.01387200       1.65184800      -0.78710400
H        0.48588700       1.27145700       2.55849600
H        1.53966700       2.25702500       1.55229900
H        2.17287400       0.81469700       2.33706100
