20
Properties=species:S:1:pos:R:3 pbc="F F F"
C       -0.44149700       1.89030700       1.38647400
C       -0.60331700       0.41974800       1.74840800
C        0.35770700      -0.50648300       0.98658300
C        0.13698600      -0.55614200      -0.52991800
C       -1.25246200      -0.97516200      -0.99230500
C        1.30260800      -0.90411700      -1.40447300
N        0.82372500       0.47963200      -1.31822200
H       -1.13647200       2.50678400       1.95369500
H       -0.62848400       2.05561100       0.32868700
H        0.56786900       2.23362500       1.60231300
H       -1.63764800       0.10781500       1.56674300
H       -0.43143000       0.29111600       2.82303500
H        0.25758800      -1.52226900       1.39074100
H        1.38808500      -0.19449300       1.18066500
H       -1.28622700      -1.09161700      -2.07388200
H       -2.00276300      -0.23581600      -0.71335300
H       -1.54463100      -1.92394200      -0.54283400
H        1.12317600      -1.43226100      -2.34316900
H        2.28512100      -1.07983800      -0.96334000
H        0.27960200       0.71895500      -2.15035700
