20
Properties=species:S:1:pos:R:3 pbc="F F F"
C        0.14023500      -2.39975800       1.10706600
C       -0.33997700      -1.41840000       0.04289300
C        0.71797500      -0.37092700      -0.28748000
C        0.73938900       1.01458800       0.29622300
N        0.42144200       0.80220000      -1.12860300
C       -0.93791100       1.02806100      -1.61513200
C       -0.28516400       1.53010900       1.28662800
H       -0.61416400      -3.15866700       1.30391300
H        0.35416500      -1.88963200       2.04429100
H        1.04994100      -2.90651900       0.78990500
H       -1.26642500      -0.94514500       0.37995500
H       -0.59244700      -1.97296700      -0.86941100
H        1.69862300      -0.81438400      -0.51687100
H        1.73267300       1.46524200       0.43917500
H       -1.05911300       2.08454700      -1.87524000
H       -1.73378700       0.76582500      -0.90194700
H       -1.09937700       0.44228400      -2.52580500
H       -1.23358200       1.00302900       1.22177400
H       -0.48054400       2.59034500       1.12437600
H        0.08666000       1.41860100       2.30491200
