20
Properties=species:S:1:pos:R:3 pbc="F F F"
C       -1.49285100      -1.06372600      -1.75907900
C       -0.28825500      -1.69253400      -1.07206900
C        0.40270000      -0.77664500      -0.04506500
C       -0.43277300      -0.18261900       1.10763100
C        0.08174000       1.20298100       0.66366200
N        0.73058400       0.59273300      -0.53229700
C        1.04436500       1.90272600       1.62092700
H       -1.89247300      -1.72926700      -2.52200600
H       -1.21440900      -0.12693800      -2.23581400
H       -2.29010800      -0.85408200      -1.04838700
H        0.44750900      -1.97841400      -1.83217800
H       -0.58793200      -2.62081800      -0.57216100
H        1.30358700      -1.30100600       0.33556500
H       -0.13804700      -0.50023800       2.11121200
H       -1.51252600      -0.31485200       1.00757000
H       -0.72300700       1.90958200       0.37870700
H        1.73575500       0.77459200      -0.58690700
H        1.84689700       1.23655000       1.93289700
H        0.52454600       2.24240000       2.51515500
H        1.49656200       2.77226000       1.14638500
