16
Properties=species:S:1:pos:R:3 pbc="F F F"
C       -2.60368700       1.77412700      -0.93338500
C       -1.37266000       1.32323100      -1.22332700
C       -0.55171200       0.54774700      -0.30416500
C        0.68678600       0.10850800      -0.60970700
C        1.53936200      -0.70235000       0.30160200
C        1.06209300      -2.00689400       0.87435900
N        1.14843900      -0.82055200       1.71261800
H       -3.17575700       2.34830000      -1.65123400
H       -3.06257700       1.57759400       0.02857100
H       -0.94077400       1.53963900      -2.20138100
H       -0.96432300       0.32556100       0.67861900
H        1.10958600       0.33441300      -1.58977700
H        2.61750200      -0.63833700       0.10394800
H        1.79155100      -2.80289800       1.04444400
H        0.05066800      -2.34932800       0.65150900
H        1.97394800      -0.85729100       2.31471400
