20
Properties=species:S:1:pos:R:3 pbc="F F F"
C       -2.05404700       1.21634400      -0.95392300
C       -1.84889200       0.44940600       0.34793500
C       -1.18830600      -0.92640400       0.15766300
C        0.33708000      -0.93879100       0.22848200
N        0.99075700      -0.17945600       1.30364700
C        1.22187900       0.22406800      -0.09105000
C        2.59386600       0.00972400      -0.69700400
H       -2.50609700       2.18772200      -0.76267200
H       -2.71151300       0.66968400      -1.62771500
H       -1.11391700       1.38316500      -1.47580200
H       -2.82457100       0.30955700       0.82543800
H       -1.25053600       1.04522700       1.04272100
H       -1.50383000      -1.36195500      -0.79815500
H       -1.56268000      -1.60849600       0.93113900
H        0.76941200      -1.93165000       0.03825800
H        1.79703200      -0.69252100       1.66778300
H        0.75267800       1.17816500      -0.35386200
H        3.01141700      -0.95064900      -0.39972700
H        3.28731500       0.78847900      -0.37974800
H        2.55051500       0.03338300      -1.78579900
