20
Properties=species:S:1:pos:R:3 pbc="F F F"
C        0.97229700       2.42961200       0.96348800
C        1.28215800       1.21557700       0.09605800
C        0.03348100       0.39962800      -0.27651500
C        0.32555300      -0.77444200      -1.22309400
N       -0.81103300      -1.68105700      -1.03920400
C       -1.33045900      -1.53593300       0.33271500
C       -0.67359500      -0.27585800       0.91533400
H        1.88070800       2.98302100       1.19334800
H        0.51394100       2.13429600       1.90506000
H        0.28612400       3.10650900       0.45796800
H        2.00004100       0.57023100       0.61501200
H        1.77808500       1.54796800      -0.82322000
H       -0.68603600       1.07085400      -0.77135700
H        1.29059200      -1.25672300      -0.96021200
H        0.41337100      -0.45499500      -2.27497800
H       -0.57757100      -2.64835200      -1.26403400
H       -1.10152900      -2.42553200       0.94651400
H       -2.43287200      -1.45125900       0.32342300
H        0.05629400      -0.54680800       1.68571900
H       -1.40052600       0.38669000       1.39328000
