20
Properties=species:S:1:pos:R:3 pbc="F F F"
C        0.17666200       0.02601200      -2.43731400
C       -0.59416000      -0.71711200      -1.35372000
C       -0.20825600      -0.41117400       0.10529000
C       -1.09708100      -1.14297200       1.10564700
N        1.22032700      -0.34202900       0.46296000
C        0.42948300       0.90028200       0.47225900
C        0.21546300       1.59779000       1.80074100
H       -0.12221200      -0.33270400      -3.42002400
H        1.25078700      -0.12586100      -2.34403600
H       -0.01476400       1.09667300      -2.40622300
H       -0.48262200      -1.79606800      -1.51736700
H       -1.66458100      -0.51197600      -1.47661900
H       -1.12611100      -2.20986100       0.88492000
H       -2.12157800      -0.77263400       1.06519200
H       -0.73113300      -1.02432500       2.12128800
H        1.80814800      -0.38786700      -0.37272900
H        0.63749600       1.58927000      -0.35648400
H        0.14447500       0.88704100       2.61934500
H       -0.69698600       2.19417800       1.78721400
H        1.04412900       2.27137500       2.01738500
