18
Properties=species:S:1:pos:R:3 pbc="F F F"
C       -3.13826500      -0.92155900       0.07820600
C       -1.68062700      -0.90404500       0.08300700
C       -0.47059600      -0.89544500       0.09310600
C        0.99486100      -0.89109300       0.09988500
C        1.61573600       0.53272800      -0.06835600
N        1.23655600       1.15553900      -1.34731500
C        1.23870500       1.45345200       1.09433400
H       -3.51864600      -1.71274900       0.72684200
H       -3.52207200      -1.09598200      -0.92864900
H       -3.54054800       0.02905300       0.43318300
H        1.35864600      -1.53771100      -0.71056500
H        1.35389500      -1.33582500       1.03769800
H        2.71487100       0.40312700      -0.07262100
H        0.23107800       1.31199200      -1.37083400
H        1.47904500       0.54610500      -2.12498900
H        0.16127200       1.59744700       1.13951700
H        1.70501500       2.42892100       0.97641400
H        1.56267100       1.03262500       2.04412500
