19
Properties=species:S:1:pos:R:3 pbc="F F F"
C        1.16049500       0.12380100       1.62271900
C        0.81737400       0.32612000       0.15283000
C       -0.67491200       0.41340200      -0.18168500
C       -1.43266300      -0.90199900       0.04154800
N       -2.83889000      -0.75956600      -0.34341500
C        1.75307400      -0.20029000      -0.89049800
N        1.71881200       1.23257100      -0.57962600
H        2.23637000       0.15435500       1.77294600
H        0.79458300      -0.83564700       1.98809600
H        0.71196600       0.90311300       2.23821300
H       -1.14029200       1.20015600       0.42534200
H       -0.79541100       0.72131300      -1.22543100
H       -1.32486600      -1.21943200       1.10022900
H       -0.98097900      -1.70050900      -0.56539000
H       -3.27826500      -0.00332900       0.17510900
H       -3.35067000      -1.61842400      -0.15929300
H        1.34945200      -0.50650100      -1.85778700
H        2.66868800      -0.71464500      -0.59440500
H        1.20976500       1.74230300      -1.30582900
