20
Properties=species:S:1:pos:R:3 pbc="F F F"
C        0.28592400      -1.61244000      -1.90076000
C        0.29061200      -0.13715600      -1.63741600
C       -0.01054200       0.47584600      -0.47653700
C       -0.39441300      -0.29283500       0.79095700
N       -1.22184300       0.52915400       1.69726100
C        0.86949900      -0.82717800       1.51052400
C        0.05449900       1.97701000      -0.37819200
H       -0.20031000      -1.82995400      -2.85202200
H       -0.22692200      -2.17306200      -1.12266000
H        1.30478100      -2.00102400      -1.97207700
H        0.57855000       0.48376400      -2.48588800
H       -1.01039500      -1.16381000       0.50341800
H       -0.67546200       1.29658800       2.08138900
H       -1.55090000      -0.03957100       2.47372700
H        1.51053600      -0.00773500       1.82990400
H        1.44924200      -1.47136000       0.85364100
H        0.59487700      -1.40143400       2.39400600
H        0.39743100       2.41988100      -1.31065200
H        0.73328400       2.28991100       0.41749600
H       -0.92528200       2.39425000      -0.14257300
