20
Properties=species:S:1:pos:R:3 pbc="F F F"
C        0.10513700       3.32857300       0.38838900
C       -0.24390900       2.02360300      -0.31556600
C        0.02746900       0.79029900       0.55793800
C       -0.34459100      -0.51546600      -0.13380000
C        0.63130700      -1.17591300      -1.07901200
C        0.33638000      -1.81181700       0.24005000
N       -0.40156400      -3.06790500       0.27155900
H       -0.09909400       4.18343200      -0.25312400
H        1.15854800       3.35762900       0.66019600
H       -0.47551200       3.44789100       1.30124200
H        0.32910700       1.94388800      -1.24499300
H       -1.29965800       2.03722900      -0.60632000
H       -0.53509200       0.88350500       1.49569800
H        1.08620700       0.76717600       0.83711600
H       -1.39368700      -0.59139700      -0.42520200
H        1.59943600      -0.70431200      -1.21725800
H        0.22725600      -1.64249900      -1.97213800
H        1.12254600      -1.75869800       0.99976000
H       -1.01102500      -3.14768100      -0.53783500
H       -0.96884500      -3.13650100       1.11394700
