20
Properties=species:S:1:pos:R:3 pbc="F F F"
C       -1.97760600      -0.10170800      -0.52894300
C       -0.46610600       0.00252000      -0.69226300
C        0.42990700      -1.01050000       0.07875200
C       -0.22730500      -2.14421500       0.86359600
N        0.97171100       0.09123000       0.92300900
C        0.24084500       1.11787400       0.12634100
C        1.13883200       2.06999800      -0.66076100
H       -2.35823700      -1.01720000      -0.97958300
H       -2.47411100       0.73866900      -1.01242900
H       -2.26533500      -0.09837500       0.52010900
H       -0.22289800       0.03956100      -1.76444600
H        1.20951400      -1.43969300      -0.58379000
H       -0.97259000      -1.76597300       1.55903800
H        0.51895200      -2.68790300       1.44023100
H       -0.71360100      -2.85027700       0.19284500
H        1.98894800       0.18261800       0.86714000
H       -0.44911800       1.70907200       0.76069500
H        1.83011900       1.52552200      -1.30226400
H        1.72773800       2.69061500       0.01295800
H        0.54724400       2.73093800      -1.29189500
