20
Properties=species:S:1:pos:R:3 pbc="F F F"
C        1.82281600       2.66154100      -0.33105900
C        1.11349500       1.34386300      -0.29205500
C       -0.16669900       1.17720500      -0.64787500
C       -0.93760300      -0.11670100      -0.66751600
C       -0.34185100      -1.28759500       0.13963000
N       -1.07192200      -2.52554700      -0.21033600
C       -0.37685300      -1.02112200       1.65874200
H        2.19264500       2.93571800       0.65875400
H        1.16970600       3.45684800      -0.68278400
H        2.69145100       2.61635600      -0.99029100
H        1.70438400       0.49496300       0.04982400
H       -0.72411400       2.04843800      -0.99599800
H       -1.05261000      -0.43854000      -1.71195100
H       -1.95958300       0.07782600      -0.31659900
H        0.70986700      -1.43517800      -0.16540900
H       -2.05516500      -2.43570700       0.03587400
H       -0.69008000      -3.31546200       0.30455800
H       -1.40090000      -0.90203100       2.00803700
H        0.17058600      -0.11686400       1.91316900
H        0.06744200      -1.85067700       2.20596900
