20
Properties=species:S:1:pos:R:3 pbc="F F F"
C       -0.97628400       1.96925200       1.38009000
C       -1.19326300       0.47582100       1.16923500
C       -0.59833900      -0.03153400      -0.15114800
C       -0.64487300      -1.55556400      -0.37887000
N        0.83271400      -1.63616800      -0.34459400
C        0.94887100      -0.15302800      -0.22021100
C        1.63808400       0.53270500      -1.39702500
H       -1.40392000       2.29434300       2.32637100
H       -1.44182100       2.54863100       0.58489900
H        0.08449600       2.21262600       1.39114600
H       -2.26773700       0.25766800       1.18685900
H       -0.75403400      -0.07928100       2.00471500
H       -1.02256600       0.54147400      -0.98872200
H       -1.08518100      -1.86294200      -1.34118400
H       -1.13026800      -2.14556100       0.41605300
H        1.23720400      -2.00063300      -1.21018600
H        1.45890700       0.13599100       0.72025900
H        1.16237500       0.27407000      -2.34173600
H        2.68390900       0.23522000      -1.45784000
H        1.60446000       1.61566600      -1.29090200
