17
Properties=species:S:1:pos:R:3 pbc="F F F"
C       -1.96987700      -0.50383100      -0.59621400
N       -0.69210000      -0.38961900       0.09241300
N        0.08137100      -1.54537400       0.12924500
C        1.34493700      -1.23483400       0.13000600
C        1.59696000       0.25235600       0.02094000
C        0.17387500       0.78376400      -0.23944100
C       -0.20584700       2.02354000       0.57568900
H       -2.47145800      -1.42279100      -0.28860200
H       -1.86805200      -0.51871700      -1.69687500
H       -2.61102200       0.34566200      -0.33835400
H        2.11340200      -1.99915300       0.23328900
H        2.30149900       0.50776100      -0.77984100
H        2.02538200       0.65808600       0.94813400
H        0.05270900       1.02848700      -1.31862900
H       -0.08696000       1.84465700       1.64234800
H       -1.24238400       2.30455900       0.39589600
H        0.42169800       2.87043200       0.30515100
