19
Properties=species:S:1:pos:R:3 pbc="F F F"
N        0.56465100      -0.50559300       2.66243800
C       -0.39181900      -0.82146400       1.59626800
C        0.15026300      -0.40676000       0.23462600
C       -0.11895800       0.97957200      -0.31584700
C       -0.79859600      -0.20902300      -0.92947600
C       -0.44506500      -0.72539100      -2.30849600
N        0.89665400       1.72162600      -1.04884100
H        0.18999400      -0.76697400       3.57049600
H        0.77577100       0.48876100       2.67167900
H       -1.37558300      -0.33143300       1.76352700
H       -0.58398200      -1.90642700       1.61490200
H        1.11924100      -0.83774000      -0.01910200
H       -0.75450500       1.62858300       0.29766800
H       -1.85912400      -0.30985600      -0.68643900
H        0.62957300      -0.71217200      -2.47871300
H       -0.91527700      -0.12523100      -3.08735500
H       -0.78516200      -1.75295500      -2.43444300
H        1.34105200       1.13808900      -1.75182100
H        1.61393100       2.07352200      -0.41802400
