20
Properties=species:S:1:pos:R:3 pbc="F F F"
C       -1.96204200       1.44675500      -0.35162900
C       -0.51677600       1.92730700      -0.31466300
C        0.53622700       0.82902000      -0.08558500
C        0.48434700      -0.40764400      -1.01267400
C        0.18521500      -1.30132800       0.22582200
C        0.35304900      -0.08077800       1.15016400
N        1.08797600      -2.42268600       0.49809700
H       -2.63898900       2.28730200      -0.49076500
H       -2.23780700       0.94706900       0.57456800
H       -2.12724100       0.74895600      -1.16981100
H       -0.41082100       2.67963900       0.47553300
H       -0.28695000       2.44025900      -1.25572300
H        1.52563600       1.31102900      -0.09884600
H        1.43764200      -0.62629000      -1.50034500
H       -0.29348200      -0.39089100      -1.78004800
H       -0.84944400      -1.68406100       0.21642400
H        1.23995400      -0.13178700       1.78611700
H       -0.50589300       0.14834700       1.78607000
H        2.05542200      -2.10943300       0.51741600
H        0.99602300      -3.14133000      -0.21587000
