19
Properties=species:S:1:pos:R:3 pbc="F F F"
C        0.38483000       1.37772300       1.76801700
C       -0.24228100       0.05001400       1.35063800
C       -0.55874200      -0.03376100      -0.14412000
N       -1.57648500       0.93084500      -0.58087200
C       -0.59940000      -1.38887100      -0.80089000
C        0.52238000      -0.44253500      -1.13679100
N        1.87958500      -0.78281300      -0.72242000
H        0.62934300       1.37167900       2.82835300
H       -0.29531000       2.20770900       1.58923900
H        1.30192300       1.57314900       1.21474400
H       -1.16205000      -0.10676400       1.92500900
H        0.43374500      -0.76839000       1.61893600
H       -1.82308800       0.77519900      -1.55473800
H       -1.23478800       1.88466700      -0.48072400
H       -1.35591800      -1.57138300      -1.55840600
H       -0.35500600      -2.25627900      -0.19482200
H        0.47199200       0.01992300      -2.12990900
H        1.88060700      -1.55491900      -0.06255300
H        2.34612200       0.01376300      -0.29321400
