15
Properties=species:S:1:pos:R:3 pbc="F F F"
C       -1.76718400      -0.14100500       0.25896700
C       -0.26415500      -0.01479000      -0.03821900
C        0.47698200       1.08272600       0.77906000
C        1.15727000      -0.05715500       1.54536200
N        0.57025500      -1.06107800       0.63105400
C       -0.03539900       0.05196900      -1.50315300
N        0.13534300       0.14003200      -2.63777500
H       -1.94406800      -0.15417500       1.33273700
H       -2.16714400      -1.06134700      -0.16265000
H       -2.32099100       0.69330300      -0.16684700
H       -0.16789800       1.73782000       1.36966800
H        1.15678400       1.69963600       0.18868500
H        0.82188400      -0.16272600       2.58898000
H        2.25764500      -0.05230900       1.54216000
H        0.01952300      -1.78334400       1.10220800
