19
Properties=species:S:1:pos:R:3 pbc="F F F"
C        2.11873200      -0.92139300      -1.44099700
C        1.57642600      -1.31509000      -0.07321700
C        0.42632600      -0.46106400       0.46075000
N        0.50604600       1.00398300       0.43457900
C       -0.49205300       0.33729700      -0.41041000
C       -1.97255000       0.52374900      -0.08709600
N       -2.18788900       1.01265400       1.27052500
H        2.97731000      -1.53813500      -1.69814200
H        2.44097800       0.11830200      -1.45758700
H        1.37139700      -1.05328100      -2.22099000
H        2.39619200      -1.28845200       0.65569100
H        1.24644800      -2.36047900      -0.10806600
H        0.01022200      -0.85271500       1.39929600
H        1.30331400       1.31358300      -0.12621700
H       -0.27308800       0.32804400      -1.48610600
H       -2.50235000      -0.43915100      -0.27280500
H       -2.41136200       1.23890500      -0.80474300
H       -1.57347600       0.54655600       1.93129000
H       -3.15397200       0.88936500       1.55846900
