18
Properties=species:S:1:pos:R:3 pbc="F F F"
C       -0.45851000      -1.32591300       2.52988600
C       -1.25476300      -0.54722800       1.53101200
C       -0.95311000      -0.32616200       0.24385200
C        0.25388100      -0.83288000      -0.50094200
C        1.01649200       0.23782300      -1.28332700
C        0.33800600       1.34913100      -2.00752500
N        1.09251000       1.61118800      -0.77998400
H       -0.27706600      -0.72743400       3.42365300
H        0.50142000      -1.65016000       2.13695900
H       -1.00924000      -2.21253900       2.85024300
H       -2.18467000      -0.12523800       1.91361100
H       -1.65945200       0.25935200      -0.34584800
H       -0.06624300      -1.61546100      -1.20668500
H        0.94816200      -1.32371300       0.18951800
H        1.96048000      -0.12682500      -1.70890800
H       -0.74896800       1.43737000      -1.95920000
H        0.78330000       1.74678700      -2.92115300
H        0.45273000       1.73092300       0.00996000
