18
Properties=species:S:1:pos:R:3 pbc="F F F"
C        1.36342600       0.79901700       1.68053300
C        0.03024100       0.10521400       1.39642600
C        0.08433500      -0.77521400       0.15961800
C        0.49437900      -2.05169900       0.24562500
C       -0.31419400      -0.20737200      -1.16744400
C       -1.55754500       0.61516700      -1.32624400
N       -0.24577400       1.23757800      -1.42964600
H        1.28845800       1.42258100       2.56943100
H        1.66765300       1.43165700       0.84934500
H        2.15025700       0.06684100       1.84646200
H       -0.75669500       0.86026000       1.28916700
H       -0.23878300      -0.50600700       2.26349700
H        0.78204500      -2.48771500       1.19385000
H        0.55208600      -2.68192400      -0.63375300
H       -0.02650400      -0.82548200      -2.02562700
H       -2.15874100       0.84428200      -0.44340100
H       -2.12202500       0.55003300      -2.25799700
H       -0.02119200       1.75175300      -0.57453900
