17
Properties=species:S:1:pos:R:3 pbc="F F F"
C       -1.76845100      -0.06101500       1.08074100
C       -0.30216500      -0.36665500       1.29468900
N        0.72918800       0.39258300       0.57362100
C        0.54991400      -1.03301000       0.23648600
C       -0.01274600      -1.47440700      -1.09679500
N        0.30376300       1.40340600      -0.30657900
C        0.88156300       1.48665900      -1.45696700
H       -2.09929900       0.71862500       1.76593100
H       -2.38488800      -0.94220100       1.26018800
H       -1.95311600       0.28677800       0.06775300
H       -0.03313700      -0.57542600       2.33936900
H        1.37065600      -1.66409500       0.60495800
H       -0.73431100      -0.76154200      -1.48547500
H       -0.50940200      -2.43994800      -0.99854100
H        0.77999500      -1.58805000      -1.83550600
H        0.61227000       2.31605900      -2.11469700
H        1.63187800       0.76844900      -1.82220500
