17
Properties=species:S:1:pos:R:3 pbc="F F F"
C       -0.91174200      -0.03356200      -2.09396200
C       -1.11001400      -0.09064800      -0.56674600
C       -0.55914300      -1.39185000       0.07530800
C        0.75631900      -1.00216700       0.76016200
C        0.74096500       0.51985300       0.79095700
N        1.60222900       1.32353400       1.34284600
N       -0.37205700       0.96413800       0.11998200
H       -1.48350600      -0.81712800      -2.58587200
H        0.13584400      -0.16129400      -2.35660400
H       -1.24343400       0.92452600      -2.48941300
H       -2.19581200       0.00873100      -0.35970500
H       -0.42157700      -2.18020500      -0.66814500
H       -1.27234300      -1.77563400       0.81002100
H        1.62587600      -1.35309500       0.19467300
H        0.84657400      -1.42909600       1.76267600
H        2.35683100       0.82294400       1.81478100
H       -0.45797300       1.93679100      -0.15652100
