16
Properties=species:S:1:pos:R:3 pbc="F F F"
C       -0.46855200      -0.39720900      -2.16580600
C       -0.40102600      -0.58324300      -0.65627700
C        0.57392200      -1.64727300      -0.10925600
C        1.15829600      -0.61767700       0.86370100
C        0.36744800       0.50313900       0.15301700
C       -0.42959500       1.39036900       0.99746800
N       -1.06270500       2.08180100       1.66673900
H       -0.89751300      -1.27669000      -2.64273500
H        0.52188000      -0.23671200      -2.58834800
H       -1.08729200       0.46005700      -2.42441400
H       -1.41249600      -0.72930000      -0.25577700
H        1.29566500      -1.99360400      -0.85249600
H        0.11005900      -2.52368200       0.34921000
H        2.24478300      -0.50287900       0.84522400
H        0.84793400      -0.77378500       1.89829100
H        1.01295600       1.11535900      -0.49320500
