18
Properties=species:S:1:pos:R:3 pbc="F F F"
C       -2.29380200       0.07586300       0.64534200
C       -0.95974100       0.03525300       0.53199000
C       -0.18608700      -1.26200700       0.49668200
C        0.82876400      -1.27042600      -0.65402900
C        1.68032600       0.01007400      -0.64209400
N        0.85568200       1.23128400      -0.68469700
C       -0.11099600       1.29060400       0.43265100
H       -2.88201600      -0.83207000       0.71352400
H       -2.82730300       1.01904400       0.67423800
H       -0.86660900      -2.11641600       0.41824600
H        0.35475900      -1.37739900       1.44670100
H        0.29758200      -1.34529800      -1.60921800
H        1.47087400      -2.15521900      -0.58145300
H        2.36211100       0.02151600      -1.50443600
H        2.30395600       0.03529800       0.26377300
H        0.33768700       1.24962500      -1.56803200
H       -0.74243500       2.17937200       0.30346400
H        0.45083600       1.42639600       1.37281700
