17
Properties=species:S:1:pos:R:3 pbc="F F F"
N        1.91089800      -0.69034200       0.48472200
C        1.61690800      -0.61906300       1.91657500
C        0.94724800       0.30593700       0.95869100
C       -0.53395000       0.14259800       0.62842800
C       -0.91863600       0.78273700      -0.70245700
N       -0.74684600       0.03047600      -1.94737400
C       -2.10282600       0.29442100      -1.46473500
H        1.43088600      -1.48572100       0.05774900
H        2.43367400      -0.25760700       2.54304700
H        1.03784200      -1.43752000       2.34975200
H        1.31619700       1.33724000       0.90617900
H       -1.13274500       0.59949600       1.42946400
H       -0.79576700      -0.92120800       0.61791300
H       -0.66067100       1.84527300      -0.78838600
H       -0.47571400      -0.93607900      -1.75376400
H       -2.66789800      -0.55373900      -1.07194100
H       -2.68662900       0.98914800      -2.07045600
