20
Properties=species:S:1:pos:R:3 pbc="F F F"
C       -0.82422400       1.24457800       2.08083100
C        0.41144900       1.20362400       1.18693200
C        0.09064400       0.79261400      -0.24675200
C        1.17636400       0.23186700      -1.14016800
C        0.03775400      -0.64993200      -0.71816300
C        0.29051000      -1.79916400       0.24197800
N       -0.94321800      -0.99721800      -1.75170000
H       -0.56383600       1.56317300       3.08820000
H       -1.29249000       0.26484100       2.14923900
H       -1.56464700       1.94017000       1.69067100
H        1.15154500       0.52053400       1.61525500
H        0.88082000       2.19542500       1.18074500
H       -0.60670700       1.46665300      -0.74843100
H        2.14998200       0.05968800      -0.69233000
H        1.21028400       0.57647900      -2.16913400
H        1.06910300      -1.55585000       0.96004700
H        0.60050500      -2.69002600      -0.30222100
H       -0.61372900      -2.05270400       0.79589900
H       -1.07054900      -0.22633400      -2.40190400
H       -1.84273500      -1.22304500      -1.33209000
