17
Properties=species:S:1:pos:R:3 pbc="F F F"
C       -2.45314100       0.01040700       0.18635200
C       -0.95376400       0.08462700       0.03118100
N       -0.36826300       1.24413700      -0.07774600
C        1.08906100       1.28060000      -0.24654700
C        1.80791400       0.03878400       0.28999700
C        1.12848700      -1.22856200      -0.21880000
N       -0.29600800      -1.14268000       0.05868500
H       -2.89025000       1.00327200       0.15864000
H       -2.72780800      -0.45902200       1.13172300
H       -2.90243400      -0.58494600      -0.60974300
H        1.48124900       2.18118800       0.25379100
H        1.32133800       1.41108100      -1.31956500
H        1.78312000       0.04277900       1.38473700
H        2.86282600       0.04559400      -0.00422700
H        1.54079000      -2.12433300       0.27586500
H        1.32112200      -1.36092700      -1.30398000
H       -0.85139600      -1.98002200      -0.08691300
