20
Properties=species:S:1:pos:R:3 pbc="F F F"
C       -2.17270200      -0.49509200       0.65498200
C       -0.69841800      -0.66913100       0.25948000
C        0.05238200       0.66179700       0.41262500
C        0.02435100       1.70482100      -0.65821000
N        1.26576800       0.98866800      -0.35040500
C        1.77097000       0.05271600      -1.35389800
C       -0.03606000      -1.77326300       1.09652900
H       -2.65724400       0.25392100       0.03173400
H       -2.26491800      -0.17767500       1.69208800
H       -2.71718900      -1.43054300       0.54318300
H       -0.66962300      -0.97353600      -0.79758000
H        0.09563200       1.02156500       1.45051600
H        0.01079500       2.76507500      -0.39489200
H       -0.46972000       1.46234700      -1.60296400
H        2.47419600       0.57342900      -2.01244900
H        0.98684500      -0.38852000      -1.98956300
H        2.31446600      -0.76077600      -0.86412700
H       -0.03712800      -1.51397900       2.15366900
H        0.99651900      -1.92610600       0.79082000
H       -0.56615000      -2.71696500       0.98335200
