19
Properties=species:S:1:pos:R:3 pbc="F F F"
N       -1.28275000       0.03168900      -1.74082900
C       -0.65720100      -0.34668100      -0.46516200
C        0.45320300      -1.41563200      -0.57097300
N        1.26429400      -1.22074500       0.63528500
C        1.10637400       0.16228600       1.12969700
C        0.06217700       0.84061100       0.21979600
C       -0.87745200       1.79814100       0.94973800
H       -1.77616300      -0.75828700      -2.14929800
H       -0.58164500       0.35191900      -2.40529800
H       -1.45425100      -0.72084600       0.20098500
H        1.04488700      -1.26783000      -1.49777800
H        0.05054200      -2.44180200      -0.61957500
H        2.24249100      -1.46893700       0.48810000
H        2.06818900       0.70073700       1.11569800
H        0.77269600       0.15910300       2.18436600
H        0.59316600       1.40870200      -0.56138600
H       -1.41040000       1.29049300       1.75237000
H       -1.61593300       2.20817100       0.26404200
H       -0.32699300       2.62961900       1.38800600
