13
Properties=species:S:1:pos:R:3 pbc="F F F"
C       -2.41254300      -0.10701600      -0.54995500
C       -1.08980600      -0.18541700      -0.25430500
C       -0.26094900      -1.39120500      -0.11625000
C        1.00294300      -1.02334600       0.18523500
C        1.04882000       0.45680300       0.25595000
N        2.03452800       1.26911900       0.51240200
N       -0.23966700       0.88975200      -0.01841800
H       -2.98596900      -1.00681800      -0.71627900
H       -2.91481100       0.84795200      -0.62386200
H       -0.63233900      -2.40177400      -0.24150700
H        1.84642500      -1.68387600       0.34983300
H        2.90956600       0.76990500       0.69039600
H       -0.51769200       1.86360700      -0.04050900
