16
Properties=species:S:1:pos:R:3 pbc="F F F"
C       -2.11478900      -0.78654100      -0.33293000
C       -0.60282500      -0.61976700      -0.45234300
N        0.20253400      -1.71177200       0.15873500
C        1.04962400      -0.74165700       0.87926100
C        0.08750300       0.40632500       0.49595900
C        0.66862400       1.60101300      -0.10955300
C        1.15708900       2.58156500      -0.62198300
H       -2.45343500      -1.64284300      -0.91344200
H       -2.63080600       0.09705500      -0.70346200
H       -2.41262400      -0.94515200       0.70146700
H       -0.32796500      -0.44886900      -1.51073700
H        0.70846600      -2.28686400      -0.51874100
H        2.06040400      -0.63758200       0.45582500
H        1.14907800      -0.94692800       1.95731300
H       -0.56363700       0.69848700       1.33378400
H        1.58142500       3.44947900      -1.06362000
