18
Properties=species:S:1:pos:R:3 pbc="F F F"
C        0.03714000       0.60347200       2.73701600
C       -0.34032400       0.50582900       1.27380300
N        0.50105500       1.18011500       0.27408900
C        0.48837900      -0.28718900       0.31041800
C       -0.12435900      -1.02624800      -0.86070300
C       -0.99518200      -0.31183400      -1.84606600
C        0.36588200      -0.77459100      -2.25732000
H       -0.26622600       1.56221800       3.15755700
H        1.11242300       0.50458200       2.87404500
H       -0.44851700      -0.17814200       3.32109100
H       -1.41388800       0.59065800       1.06935300
H        1.35326700       1.54148400       0.70908400
H        1.39406000      -0.75583900       0.72243300
H       -0.40076800      -2.05925700      -0.63471000
H       -1.13720800       0.75395900      -1.70343600
H       -1.85618200      -0.83941400      -2.24547800
H        1.13101200      -0.01819800      -2.39562100
H        0.43542500      -1.61948800      -2.93583400
