18
Properties=species:S:1:pos:R:3 pbc="F F F"
C       -2.15009500       0.08044800      -0.28853100
C       -0.74670600      -0.01367500      -0.90741600
C        0.03951600      -1.27649500      -0.43135800
C        1.19177700      -0.74852400       0.40562200
C        1.18403000       0.74639700       0.29343900
N        0.08290300       1.18309600      -0.57062100
C        0.81523300       0.10476600       1.59503600
H       -2.75442200      -0.77944800      -0.57208300
H       -2.66082800       0.97868600      -0.63020100
H       -2.10422600       0.11503300       0.79760600
H       -0.87138800      -0.04362800      -2.00650500
H        0.42233100      -1.84229900      -1.28847800
H       -0.60935700      -1.95981700       0.12729500
H        2.11762400      -1.32171800       0.45058500
H        2.09439600       1.34601200       0.22573800
H        0.46560600       1.59172400      -1.42640600
H       -0.22158700       0.11376600       1.91352400
H        1.53900300       0.16251900       2.40251800
