17
Properties=species:S:1:pos:R:3 pbc="F F F"
C       -1.36560600       1.37190500       0.86690500
C       -0.01891200       0.82541300       1.28742600
C        1.22612500       1.11898500       0.51237700
C        0.68239300      -0.28479000       0.52928000
C        0.08046000      -0.96589600      -0.67308800
N       -0.20655500      -2.23621700      -0.68124400
N       -0.12128300      -0.21875600      -1.82205700
H       -1.53010300       2.35792800       1.30039700
H       -2.17215800       0.72426100       1.20771500
H       -1.44715500       1.46696900      -0.21322800
H        0.10726300       0.77542900       2.37062700
H        2.14262800       1.30661800       1.06326800
H        1.13724100       1.69420200      -0.40426900
H        1.22057200      -0.98165600       1.17335200
H        0.01552600      -2.68972500       0.20704400
H       -0.13073800       0.78934700      -1.76927600
H       -0.67497800      -0.65225100      -2.54992200
