20
Properties=species:S:1:pos:R:3 pbc="F F F"
C        0.81075300       2.27080100       1.56016000
C        0.25200000       0.86343200       1.37179400
C       -0.15054100       0.58654900      -0.07373500
C        0.85669800       0.03284000      -1.05907500
C       -0.31118800      -0.81194900      -0.64194600
C       -0.08589600      -2.03973900       0.22336900
N       -1.36008100      -1.02813500      -1.64441400
H        1.09367500       2.44121100       2.59707900
H        0.07460500       3.02365800       1.28530300
H        1.69161900       2.42634800       0.94115400
H       -0.61752000       0.73086900       2.02825000
H        0.99858000       0.13263700       1.69733100
H       -0.82634700       1.33590400      -0.49068000
H        1.83810100      -0.22541800      -0.67432300
H        0.86256700       0.44863200      -2.06194200
H        0.74556000      -1.89912800       0.90911900
H        0.13141700      -2.90846600      -0.39629400
H       -0.97426900      -2.27233500       0.81154100
H       -1.48140700      -0.20184500      -2.22387500
H       -2.24696700      -1.24672400      -1.19516800
