17
Properties=species:S:1:pos:R:3 pbc="F F F"
N       -2.17024400      -1.20623800       0.71172000
C       -1.13969800      -1.09032200       1.74501700
C       -1.11338100      -0.20516900       0.54621500
C       -0.11804900      -0.42210100      -0.58819000
C        1.19672300       0.31405900      -0.35947800
N        1.23573700       1.74635100      -0.66809600
C        2.01284500       0.82427700      -1.49754900
H       -3.04187000      -0.77029600       1.01995400
H       -0.45371700      -1.93625100       1.81243600
H       -1.44125300      -0.67077500       2.70721300
H       -1.41226200       0.83918700       0.70153500
H        0.07580700      -1.49490100      -0.69847500
H       -0.56062000      -0.08301100      -1.53109900
H        1.74820000       0.00727500       0.53989300
H        1.84485700       2.24404800      -0.01533600
H        3.09983500       0.85572100      -1.39755300
H        1.65192700       0.70374300      -2.52002800
