18
Properties=species:S:1:pos:R:3 pbc="F F F"
C       -0.80566500      -0.05456600      -1.87693400
C       -1.31080100      -0.00923800      -0.45122200
C       -0.64197200      -0.71238000       0.69830800
C       -0.63109700       0.78755600       0.64878400
C        0.80681900       1.22859100       0.43068600
C        1.63042500      -0.07569100       0.29113300
N        0.71925100      -1.22531200       0.50086800
H       -1.33155700      -0.82452400      -2.44110600
H        0.25564400      -0.27871100      -1.92183600
H       -0.97330600       0.89560600      -2.38585500
H       -2.40130300       0.01457800      -0.38039200
H       -1.25072000      -1.27989000       1.40771600
H       -1.26124000       1.38602500       1.30788000
H        1.15330400       1.82372700       1.28296100
H        0.92099500       1.86443200      -0.45468400
H        2.45556000      -0.11424300       1.01909200
H        2.10527300      -0.13160500      -0.70452100
H        1.00633600      -1.76383900       1.32014600
