16
Properties=species:S:1:pos:R:3 pbc="F F F"
C       -2.13884400       0.45292800       0.18630800
C       -0.64556100       0.42028300       0.19601300
C        0.20110700       1.47023900       0.31667500
C        1.58440200       0.99282600       0.27621300
C        1.59777700      -0.34795300       0.12959800
C        0.17836600      -0.86832700       0.12268400
N       -0.12363600      -1.77870900      -0.99440200
H       -2.51251500       1.47441500       0.20418600
H       -2.55373400      -0.07310400       1.04956600
H       -2.53882700      -0.04039300      -0.70274200
H       -0.08744500       2.51149400       0.41954900
H        2.45490000       1.63611500       0.35036400
H        2.47646500      -0.97963600       0.06514400
H        0.00899200      -1.43422800       1.06399200
H        0.05876000      -1.31493500      -1.88146100
H       -1.10463400      -2.04874900      -0.97272700
