20
Properties=species:S:1:pos:R:3 pbc="F F F"
C        0.25333800      -0.14566300       1.60736700
C       -0.05889500      -0.00998000       0.12396500
C       -1.55470800       0.01959100      -0.22086900
C       -2.26863600      -1.30525500       0.03212200
C        0.86655400      -0.69250300      -0.86368200
C        0.87545100       0.80038100      -0.76114400
N        2.05840700       1.47192500      -0.24258400
H        1.32613700      -0.13745000       1.78771200
H       -0.14348800      -1.07656300       2.01177900
H       -0.18925400       0.67234400       2.17648800
H       -2.04551600       0.80983100       0.36026900
H       -1.67283700       0.29345400      -1.27514100
H       -2.23166800      -1.57940100       1.08423000
H       -1.80931600      -2.10970400      -0.53854800
H       -3.31505300      -1.24077400      -0.25949100
H        0.42597300      -1.14620800      -1.74671900
H        1.72135100      -1.22892300      -0.46339100
H        0.40377600       1.34465800      -1.58791700
H        2.63773800       0.83396200       0.29530600
H        1.80468400       2.26187600       0.34696800
