19
Properties=species:S:1:pos:R:3 pbc="F F F"
C       -1.50020200      -0.90601700      -0.85416900
C       -0.01095800      -0.59125200      -0.96633000
N        0.89265700      -1.63431600      -0.40563800
C        1.65098900      -0.62323200       0.35779100
C        0.63156300       0.46757900      -0.02202900
C       -0.20633200       1.02263000       1.13474300
N       -1.20496900       1.98264200       0.65689400
H       -1.76199300      -1.73762900      -1.50692700
H       -2.09903100      -0.04556900      -1.14393600
H       -1.77246600      -1.18268700       0.16152700
H        0.23079300      -0.37014800      -2.02709600
H        1.44560600      -2.13089200      -1.10769400
H        2.66903500      -0.44595400      -0.02802400
H        1.73776100      -0.85600800       1.43273400
H        1.08017200       1.30901800      -0.57286200
H        0.48076700       1.48148400       1.88040200
H       -0.72182500       0.20631100       1.65896100
H       -0.75789700       2.74869000       0.15953200
H       -1.73510100       2.36684900       1.43456700
