16
Properties=species:S:1:pos:R:3 pbc="F F F"
C       -1.22365800       0.01440900      -0.85366900
C       -1.72072100       0.12752100       0.51657300
C       -2.15860900       0.21096500       1.63960200
C        0.31085900      -0.13230300      -0.95952700
C        1.02472300      -1.12631600      -0.02317900
C        1.94228100       0.03585200       0.37425000
N        1.09566000       0.98465100      -0.37945600
H       -1.54026800       0.89956100      -1.42111700
H       -1.70104700      -0.85079100      -1.33439700
H       -2.52655000       0.30283800       2.63143700
H        0.56167000      -0.30722200      -2.02676200
H        1.50811000      -1.97686400      -0.51131800
H        0.39910000      -1.49943600       0.79027100
H        2.96939700      -0.04674900      -0.01802400
H        2.00890700       0.26023700       1.45039400
H        1.60181800       1.54510500      -1.06859200
