20
Properties=species:S:1:pos:R:3 pbc="F F F"
C       -2.09813500       1.50015100       1.08545900
C       -0.66639700       1.22049100       1.52655300
C        0.34715700       1.22728400       0.37061800
C        0.17736100       0.06346500      -0.59787500
N        1.30246900      -0.29070600      -1.47570900
C        0.92178300      -1.21841500      -0.39995900
C        0.33853900      -2.55553900      -0.80549000
H       -2.77005000       1.50690000       1.94125500
H       -2.45421500       0.74433500       0.38870200
H       -2.17213500       2.46794400       0.59337300
H       -0.62491000       0.25585800       2.04358300
H       -0.36633400       1.97506400       2.26168100
H        1.36107300       1.20232500       0.78632400
H        0.26184600       2.17421100      -0.17631600
H       -0.79673100       0.01084400      -1.09751000
H        2.14023700       0.23449000      -1.21350100
H        1.61291000      -1.25800400       0.45260800
H       -0.34268600      -2.44345600      -1.64537600
H       -0.21105400      -3.00795100       0.02000000
H        1.12292400      -3.25224400      -1.10069500
