15
Properties=species:S:1:pos:R:3 pbc="F F F"
C       -0.46440500       0.82550900       2.63697500
C       -0.71406700       0.75282400       1.14624800
C        0.22989500       1.35724500       0.15807300
N        0.18183800      -0.09777000       0.34818500
C       -0.45256400      -0.87267000      -0.72832100
C        0.48770000      -1.14018100      -1.82453800
N        1.19470100      -1.35889800      -2.70519300
H       -0.91351900       1.72232700       3.06231100
H        0.60108700       0.84469600       2.85173100
H       -0.89609500      -0.03405700       3.14866700
H       -1.77288500       0.73547800       0.85171200
H        1.14581400       1.83681300       0.50460000
H       -0.17586500       1.75391600      -0.77517800
H       -1.34277200      -0.36207900      -1.15159300
H       -0.80089600      -1.83678300      -0.32382100
