19
Properties=species:S:1:pos:R:3 pbc="F F F"
C       -0.28699400      -0.12289100      -2.36633300
C       -0.27706400      -0.44885800      -0.87864300
C        0.73479000      -1.50014200      -0.37919200
N        1.18985300      -0.57918000       0.67936500
C        0.43605500       0.54891300       0.07428700
C       -0.40732700       1.39026500       1.04597900
N       -1.16856300       0.56491500       1.98057600
H       -0.66502600      -0.96316300      -2.94721600
H        0.71404500       0.10751600      -2.72780400
H       -0.92255400       0.73681900      -2.57442900
H       -1.29986000      -0.67837900      -0.54604000
H        1.51778700      -1.74889900      -1.11548800
H        0.31610100      -2.44726100      -0.00072400
H        2.20181100      -0.43982100       0.71613300
H        1.10160300       1.23381800      -0.49281400
H       -1.06345100       2.06255500       0.44864700
H        0.25893100       2.05244600       1.62165500
H       -1.69767300      -0.15124700       1.49109700
H       -1.80750200       1.13174900       2.53081300
