16
Properties=species:S:1:pos:R:3 pbc="F F F"
C       -1.81090300       0.15054300      -1.29944300
C       -0.36102600       0.21077100      -0.84053500
C        0.19931000      -1.00392800      -0.03220500
C        1.64844300      -0.53800200       0.18256500
C        1.47589400       0.73142700       0.57371900
C       -0.05535400       0.86748500       0.54473000
N       -0.43951200      -0.43509400       1.22075700
H       -1.91975200      -0.53712700      -2.13742700
H       -2.15137900       1.13031400      -1.63245900
H       -2.48252900      -0.18216600      -0.50952300
H        0.27075400       0.55422600      -1.67450000
H       -0.01104700      -2.05353600      -0.28717300
H        2.56740600      -1.09630400       0.04077000
H        2.21738600       1.47844700       0.83555200
H       -0.53379000       1.79292200       0.89926300
H       -1.45864200      -0.55089900       1.14721400
