19
Properties=species:S:1:pos:R:3 pbc="F F F"
C       -1.61143700       0.96353300       1.13622800
C       -0.11087500       0.82432300       0.99223300
C        0.63202600       1.57582800      -0.09190000
C        0.53537700       0.06230500      -0.12871100
N        1.73066900      -0.71788600       0.21407500
C       -0.28793000      -0.60506100      -1.22757600
N       -0.81063200      -1.89307300      -0.76608000
H       -1.86338300       1.84462500       1.72663000
H       -2.03618400       0.09602400       1.63957100
H       -2.09880100       1.06162400       0.16917600
H        0.41596700       0.77106900       1.94738300
H        1.58182500       2.03061000       0.17238400
H        0.03764700       2.14842100      -0.79733500
H        2.21626400      -0.30464000       1.00587300
H        2.37303600      -0.76083100      -0.57507200
H        0.35251000      -0.72333200      -2.13010300
H       -1.12174700       0.04531800      -1.53078100
H       -0.07172400      -2.41630900      -0.30182800
H       -1.16863600      -2.44143300      -1.54349800
