20
Properties=species:S:1:pos:R:3 pbc="F F F"
C       -0.37731400      -1.42481800      -1.97692300
C       -0.29097200       0.04724100      -1.58312700
C        0.06833800       0.27199100      -0.10605500
C       -1.01749400      -0.16241900       0.88839800
C       -0.65903400       0.03476100       2.35456000
N        1.46456000       0.02010400       0.28075000
C        0.99241000       1.40724500       0.20855800
H       -0.58285700      -1.52655100      -3.04063600
H       -1.17030200      -1.93521800      -1.43453400
H        0.55698200      -1.94026900      -1.76432500
H       -1.24756000       0.53646900      -1.80313000
H        0.45793700       0.54030500      -2.21260100
H       -1.24286000      -1.22179300       0.71813200
H       -1.94378400       0.37945200       0.65908300
H        0.29718200      -0.42907200       2.58304400
H       -1.41689600      -0.41263700       2.99475700
H       -0.59105600       1.09013700       2.61124700
H        2.02950300      -0.20849900      -0.54069600
H        1.37435700       2.01690600      -0.61370300
H        0.93182400       1.92603700       1.16563800
