19
Properties=species:S:1:pos:R:3 pbc="F F F"
C        0.67925200      -2.18482100       1.34446600
C       -0.31776600      -1.54564400       0.38307600
C        0.27904800      -0.38047800      -0.39826000
C        0.38539000       1.00994100       0.17510500
C       -0.60074200       0.71146500      -0.94469800
N       -0.37422900       1.19459100      -2.30462000
N       -0.06284300       1.29378200       1.53402000
H        0.22452200      -3.01611800       1.87959000
H        1.03149300      -1.46338300       2.07804500
H        1.54694900      -2.56552500       0.80939100
H       -1.20098800      -1.21081100       0.93858200
H       -0.67694600      -2.30392600      -0.32326000
H        1.11444000      -0.67003300      -1.04028000
H        1.28657900       1.56735000      -0.10505100
H       -1.65969700       0.66496700      -0.66992300
H        0.55776200       0.95054400      -2.62788600
H       -0.48213400       2.20568400      -2.35773000
H       -0.68960400       0.57005900       1.87370400
H       -0.54396600       2.18979900       1.58088600
