19
Properties=species:S:1:pos:R:3 pbc="F F F"
C       -0.10852900       2.67085200       1.72181800
C       -0.20522400       1.14982800       1.67592000
C        0.30210100       0.56928800       0.36116500
N       -0.64652200       0.48889300      -0.75761400
C       -0.16440600      -0.75957000      -0.14164900
C        0.75829600      -1.67048100      -0.95573600
N        0.03337200      -2.52630300      -1.90678600
H       -0.48023800       3.05508400       2.66978800
H       -0.69374300       3.11991500       0.92282400
H        0.92235600       3.00163700       1.60710600
H       -1.24419300       0.84372200       1.82755100
H        0.37077800       0.72444100       2.50766000
H        1.32535000       0.86503000       0.09134000
H       -0.16543800       0.65512500      -1.64538800
H       -0.93534300      -1.28120600       0.43907700
H        1.48416400      -1.06051200      -1.51249100
H        1.33812000      -2.31772500      -0.28097300
H       -0.52510100      -1.95344900      -2.53554400
H       -0.59809400      -3.14970300      -1.40927300
