20
Properties=species:S:1:pos:R:3 pbc="F F F"
C       -1.89433700      -0.39202900      -0.40406300
C       -0.39112100      -0.40710100      -0.15709800
C       -0.01142500      -0.42009700       1.32651700
N       -0.46258100       0.80107700       2.00237900
C        0.46512600      -1.19537700      -1.11604200
C        0.48413400       0.30895100      -1.16155300
C        1.73069000       1.07797500      -0.77595300
H       -2.36490800      -1.28953300      -0.00142500
H       -2.11961500      -0.34254300      -1.46760400
H       -2.35662300       0.46523600       0.08300600
H        1.08262800      -0.57299000       1.43450700
H       -0.48904200      -1.28342500       1.81639600
H       -0.05203000       1.62271700       1.56612700
H       -0.19887600       0.78650500       2.98402600
H       -0.02149700      -1.72331100      -1.93066800
H        1.34336000      -1.69510100      -0.71804800
H       -0.05090000       0.74864800      -2.00591600
H        2.28208900       0.58073800       0.01864200
H        1.48435000       2.08447700      -0.43658200
H        2.40072600       1.17711300      -1.62996600
