19
Properties=species:S:1:pos:R:3 pbc="F F F"
N        1.96858300       0.91353000       0.97540200
C        1.54992200      -0.33653900       0.33393300
C        0.03187500      -0.38145900       0.11858900
C       -0.78039600      -0.48907700       1.40283500
C       -0.46126000      -1.14753100      -1.09724200
C       -0.52018600       0.36547300      -1.06113400
N       -1.79089900       1.07084400      -0.98452600
H        2.96784500       0.90400400       1.16190800
H        1.47480800       1.05089500       1.85330900
H        1.86131800      -1.22510100       0.92668000
H        2.06304900      -0.41999400      -0.63575600
H       -1.82888900      -0.69439600       1.19774500
H       -0.72817200       0.43178300       1.98372800
H       -0.40285400      -1.29631600       2.03085800
H       -1.39385500      -1.69337500      -0.99792100
H        0.27568500      -1.62525500      -1.73666400
H        0.21093000       0.88963200      -1.68381100
H       -2.41975300       0.62579500      -0.32228100
H       -2.24363400       1.09650400      -1.89581700
