18
Properties=species:S:1:pos:R:3 pbc="F F F"
C       -0.56648100      -0.21978800      -2.33840300
C       -0.48703000      -0.49960700      -0.84424300
C        0.50697800      -1.57542300      -0.36259300
N        1.06285800      -0.64103400       0.63673900
C        0.32129400       0.49770900       0.04050100
C       -0.44943900       1.37031600       0.99748700
C       -0.43211900       1.23754000       2.32371400
H       -1.01837600      -1.05816100      -2.86715800
H        0.42188700      -0.05195600      -2.76361200
H       -1.17034500       0.66412200      -2.53947000
H       -1.49568300      -0.66993100      -0.44478700
H        1.23622300      -1.88294600      -1.13057800
H        0.06981900      -2.48841400       0.07338700
H        2.08000700      -0.54286200       0.60250000
H        0.97724700       1.14144400      -0.58538700
H       -1.05345700       2.15555400       0.53994500
H        0.15752800       0.45897300       2.79360500
H       -1.00407700       1.89694500       2.96559800
