20
Properties=species:S:1:pos:R:3 pbc="F F F"
C       -0.69139700      -0.41632100      -1.97995700
C       -0.62738800      -0.62711100      -0.47207700
C        0.40201200      -1.65455800       0.04933100
C        0.99291900      -0.61661200       1.01369300
C        0.04689900       0.47874500       0.41027200
C       -0.88892700       1.14465800       1.42726300
N        0.73517300       1.52451700      -0.36699900
H       -1.14439100      -1.27836100      -2.46809900
H        0.29949400      -0.27725900      -2.40788500
H       -1.28822100       0.46050400      -2.22261800
H       -1.63773100      -0.85560700      -0.10327800
H        1.10896500      -1.99200800      -0.71243000
H       -0.02523300      -2.54032500       0.52637100
H        2.06150900      -0.42783600       0.88561600
H        0.81128400      -0.83764600       2.06799700
H       -1.42371900       0.40079100       2.01394300
H       -1.62278000       1.77094000       0.92416000
H       -0.32796100       1.77559100       2.11563800
H        1.41730700       1.11070200      -0.99745400
H        1.22055600       2.16609100       0.25588900
