18
Properties=species:S:1:pos:R:3 pbc="F F F"
C       -1.95016300       0.27194000       1.01833000
C       -0.43146400       0.24620400       0.88718800
C        0.18256700       1.32008800      -0.07241900
C        0.95748400       0.36400700      -0.99329400
C        1.54144100      -0.62349400       0.02768400
N        0.09206600      -1.04065700       0.26491300
C       -0.09268200      -0.73238400      -1.21920300
H       -2.27715200       1.20076000       1.48296700
H       -2.29630800      -0.55249600       1.63882700
H       -2.44534100       0.19353900       0.05229000
H        0.00815300       0.33444700       1.89682200
H        0.83147800       2.03099100       0.44952200
H       -0.57849800       1.89597300      -0.60844800
H        1.55066900       0.80267500      -1.80882900
H        2.06198700      -0.23073400       0.91029700
H        2.11102100      -1.44920000      -0.41249900
H       -1.10744400      -0.44421600      -1.51803100
H        0.25386700      -1.57530600      -1.82702200
