18
Properties=species:S:1:pos:R:3 pbc="F F F"
C       -1.75605000       1.03639600       0.60569000
C       -0.26439900       0.98318400       0.79205400
C        0.33606000       1.68646100       1.76725400
C        0.54485400       0.13125000      -0.13356500
C        0.13586100      -0.09024200      -1.57906200
C        0.07636500      -1.22293200      -0.59166700
N        1.03591700      -2.31539100      -0.64101200
H       -2.22676600       1.61833500       1.39349300
H       -2.19294000       0.03736600       0.61121000
H       -2.01386600       1.49279700      -0.35115200
H       -0.23685100       2.30137400       2.44925300
H        1.41039900       1.65627500       1.89891000
H        1.62076300       0.21500100       0.02505000
H        0.93183000      -0.08944500      -2.31704600
H       -0.79423500       0.35667500      -1.91571000
H       -0.91657700      -1.54632900      -0.26716100
H        1.96618100      -1.97278500      -0.86631000
H        0.76449500      -3.00623300      -1.33767900
