18
Properties=species:S:1:pos:R:3 pbc="F F F"
C        0.73958400       1.25066700       2.30013100
C        0.03255500       0.88114400       1.02301900
C       -1.14247700       1.43045300       0.68867700
C        0.74164200      -0.15666400       0.17210000
C        0.15024800      -0.37801200      -1.21252900
C        0.29440500      -1.69859300      -1.88864500
N       -1.00521400      -1.26575100      -1.37336400
H        0.16883600       1.97480300       2.87544100
H        1.72184100       1.67710200       2.09108700
H        0.90286700       0.37021800       2.92324800
H       -1.61604900       2.16070100       1.33338500
H       -1.65457700       1.16016500      -0.22540600
H        0.75682800      -1.10858300       0.72080700
H        1.79679600       0.13656800       0.07462900
H        0.11560800       0.51422200      -1.84849400
H        0.79803100      -2.50989600      -1.35831800
H        0.37082200      -1.74862300      -2.97586600
H       -1.22024400      -1.74038700      -0.49348900
