18
Properties=species:S:1:pos:R:3 pbc="F F F"
C       -1.54750900       0.68194300      -0.44561500
C       -0.02548200       0.58506200      -0.27453400
C        0.38296600      -0.29692900       0.92247000
C       -0.37799700      -1.49890400       1.36466800
N       -0.44176800      -0.25289900       2.13082400
C        0.63134700       0.07555700      -1.54312400
C        1.57216100       0.73239600      -2.22119000
H       -2.01641400       0.96327500       0.49418400
H       -1.97191900      -0.26766300      -0.76664500
H       -1.79999700       1.42939500      -1.19470900
H        0.35930500       1.59905100      -0.07493300
H        1.46810600      -0.32610100       1.09102500
H        0.17080700      -2.33197400       1.80970700
H       -1.30199100      -1.78263800       0.85997900
H        0.13733800      -0.31234400       2.97098200
H        0.29515200      -0.89824900      -1.90187500
H        1.92974400       1.70327900      -1.89721100
H        2.00933400       0.31951000      -3.12232600
