18
Properties=species:S:1:pos:R:3 pbc="F F F"
C        1.43337100      -1.44642800      -1.14961200
C        1.69433900      -0.15818500      -0.92618300
C        1.23265900       0.67307800       0.24215700
C        0.29154100      -0.00579600       1.24472900
C       -1.18106300      -0.09847700       0.84310600
C       -1.92077600       1.04516100       0.23681800
N       -1.60762500      -0.14477400      -0.55542100
H        1.83513700      -1.94941200      -2.02067000
H        0.81001000      -2.03103100      -0.48452600
H        2.32867700       0.37756600      -1.63463900
H        0.77413600       1.59438600      -0.14178000
H        2.12921800       1.01061100       0.78078800
H        0.34952800       0.54144400       2.19485700
H        0.66358500      -1.01250400       1.46610800
H       -1.75948600      -0.76319300       1.49818200
H       -1.38001900       1.96394700      -0.00081600
H       -2.97825700       1.18920700       0.46564100
H       -0.81957500       0.03627400      -1.18128800
