20
Properties=species:S:1:pos:R:3 pbc="F F F"
C        0.48631400       2.47987700      -1.66424800
C        0.45687400       1.59551600      -0.42169000
C       -0.69643900       0.59916500      -0.44852900
C       -0.52436100      -0.76424700      -1.05323500
C       -0.72522300      -0.62264100       0.42972000
C        0.40438200      -0.96297100       1.40733400
N        0.40696400      -2.37728700       1.80997400
H        1.31080700       3.18852200      -1.61774000
H       -0.43789500       3.04618600      -1.76287400
H        0.60699000       1.88246700      -2.56549700
H        0.37347300       2.22996000       0.46964400
H        1.40881600       1.06295300      -0.33386300
H       -1.66841600       1.06586300      -0.62385400
H        0.46730200      -1.03834200      -1.40012900
H       -1.33652300      -1.17153700      -1.64832100
H       -1.71564100      -0.90784200       0.79278500
H        1.37814500      -0.72808400       0.95803000
H        0.31326400      -0.34569500       2.31384400
H        0.51513900      -2.97363500       0.99289500
H       -0.47349200      -2.61800700       2.25914600
