20
Properties=species:S:1:pos:R:3 pbc="F F F"
C       -0.96394100       2.29584700      -0.91689900
C       -1.21747600       0.82827700      -1.23839300
N       -0.68245900      -0.04924500      -0.18132200
C       -0.37274400      -1.42578700      -0.58036800
C        0.72385800      -0.44609600      -0.30955900
C        1.59855300      -0.48176000       0.94053500
C        0.88497600      -0.95542000       2.19893300
H       -1.38210600       2.93889100      -1.68902200
H        0.10264200       2.50205700      -0.84829000
H       -1.41657800       2.57012300       0.03352300
H       -0.78294300       0.58226500      -2.22908900
H       -2.30121600       0.65085100      -1.32062500
H       -0.56886700      -1.70514900      -1.61947500
H       -0.62149300      -2.19477200       0.15279700
H        1.24497400      -0.06475700      -1.20065700
H        2.00231000       0.52366500       1.11359300
H        2.46866300      -1.12245100       0.74814700
H       -0.00764900      -0.36224600       2.38204700
H        1.53708900      -0.86648700       3.06567000
H        0.58303500      -1.99764600       2.11513500
