20
Properties=species:S:1:pos:R:3 pbc="F F F"
C       -1.12287100       2.19499100       1.52002300
C        0.26458700       1.57896000       1.37312800
C        0.43941600       0.82754400       0.05879200
C        1.52037700      -0.20587600      -0.08058100
C        0.07776700      -0.62598600      -0.04888200
C       -0.58814700      -1.16110500      -1.30882500
N       -0.38830100      -2.60850800      -1.43230700
H       -1.21314300       2.72776200       2.46450200
H       -1.89642900       1.43055900       1.49025200
H       -1.32347700       2.90134800       0.71669300
H        0.45442800       0.89894900       2.21004000
H        1.01845500       2.37284800       1.44395500
H        0.25010500       1.43253900      -0.83059100
H        2.13412700      -0.42301600       0.78838600
H        2.04825600      -0.26266400      -1.02806800
H       -0.24871400      -1.11025300       0.87255600
H       -0.19920600      -0.61136900      -2.19239800
H       -1.67116400      -0.96038400      -1.27560600
H        0.60286100      -2.83415200      -1.41314400
H       -0.78477000      -2.95377800      -2.30236600
