19
Properties=species:S:1:pos:R:3 pbc="F F F"
N       -2.07581100      -1.45191200      -0.15276000
C       -0.62208100      -1.32933400      -0.30003900
C       -0.05136800      -0.43122900       0.78888500
C       -0.02608400       1.06454700       0.67456500
C        1.27703500       0.28398400       0.63733400
C        2.11488200       0.17642600      -0.61919800
N       -0.56480000       1.73456300      -0.49976400
H       -2.46987500      -2.00944800      -0.90596400
H       -2.51141000      -0.53313000      -0.16140700
H       -0.34053200      -0.94985600      -1.30496500
H       -0.17528000      -2.33340700      -0.22165700
H       -0.25043700      -0.80937700       1.79420200
H       -0.21960700       1.62187300       1.59886700
H        1.87390900       0.33037800       1.55099000
H        1.50851200       0.26617300      -1.51789700
H        2.64118500      -0.77734500      -0.66600300
H        2.86612000       0.96559200      -0.64784600
H       -0.58597600       1.11162900      -1.30202700
H       -0.00663200       2.55199800      -0.73791000
