20
Properties=species:S:1:pos:R:3 pbc="F F F"
C       -1.45030900      -1.27869200       1.94602700
C       -1.78703900      -0.83894800       0.52708400
C       -0.73222700       0.00977300      -0.18268200
N       -0.04555800       1.10234500       0.52018300
C        0.73124900      -0.07626300       0.10933900
C        1.81477300       0.09719500      -0.95291500
C        1.48935100       1.12249900      -2.02968100
H       -2.28273400      -1.83165900       2.37624000
H       -1.25194800      -0.42538200       2.59245800
H       -0.57638000      -1.92666400       1.96823300
H       -2.72950100      -0.27775800       0.54462900
H       -1.98522400      -1.72848900      -0.08370400
H       -1.02430500       0.27501200      -1.20637700
H       -0.24515800       1.06730800       1.52252600
H        1.02907300      -0.74738300       0.92617800
H        2.01815000      -0.87608100      -1.41810700
H        2.74735900       0.38793400      -0.45339500
H        0.65245200       0.80076200      -2.64662500
H        2.34532400       1.27479300      -2.68441300
H        1.22701500       2.07780800      -1.58195800
