20
Properties=species:S:1:pos:R:3 pbc="F F F"
C        0.85038500      -2.10945600      -1.99433500
C        0.96528600      -1.95119400      -0.48285700
C        0.05546200      -0.85978200       0.09952000
C        0.45737900       0.55562700      -0.33041700
C       -0.31122700       1.69329800       0.33844600
C       -1.66725800       1.53713100       0.93510400
N       -0.49523500       1.72865500       1.79236700
H        1.48436700      -2.92151800      -2.34401300
H        1.15434000      -1.20306500      -2.51333100
H       -0.17338300      -2.33352000      -2.28716200
H        2.00617100      -1.73807400      -0.21693600
H        0.71588100      -2.90527600      -0.00593400
H        0.08333800      -0.93057700       1.19318800
H       -0.98034200      -1.05735300      -0.19622400
H        0.33826800       0.65157800      -1.41622200
H        1.52832900       0.69762600      -0.13712600
H       -0.07228400       2.67684100      -0.08715800
H       -2.13887500       0.55311600       0.94507400
H       -2.36715000       2.37431900       0.91122800
H       -0.21218500       0.84157700       2.21527500
