22
Properties=species:S:1:pos:R:3 pbc="F F F"
C       -1.78613700       2.61888200       0.07206000
C       -2.07499700       1.31910300      -0.66954700
C       -1.51305400       0.06901300       0.02259800
C        0.01829800       0.00176300       0.02409000
C        0.54609900      -1.29618500       0.64492600
C        2.07592500      -1.38106700       0.64019700
N        2.61251500      -1.37541700      -0.72312100
H       -2.23020700       3.46543000      -0.44812200
H       -0.71657800       2.80103300       0.15103900
H       -2.19515400       2.59286400       1.08029100
H       -1.67212900       1.38401900      -1.68600700
H       -3.15942600       1.20437500      -0.77659800
H       -1.91004800      -0.81883300      -0.48310100
H       -1.88326300       0.02418800       1.05304100
H        0.42705200       0.85655800       0.57304700
H        0.39215800       0.08839900      -1.00062700
H        0.13282100      -2.15503300       0.10302700
H        0.18848600      -1.38427200       1.67702800
H        2.38841000      -2.28915600       1.20041800
H        2.49878700      -0.52439000       1.18549000
H        2.22931300      -2.14710700      -1.26293700
H        3.62537600      -1.45921100      -0.71008700
