20
Properties=species:S:1:pos:R:3 pbc="F F F"
C       -0.98175500       1.49742000       0.45530900
C        0.00077100       0.35007300       0.17848200
C       -0.76049300      -0.93002600      -0.19121500
C       -0.21613500      -2.27112300       0.16136800
N       -1.37561800      -1.72810400       0.87313200
C        1.01633400       0.70903400      -0.93389800
C        1.97382800       1.83219800      -0.55598700
H       -0.45963100       2.39618200       0.77623200
H       -1.68412700       1.21910900       1.23824200
H       -1.55545300       1.74293000      -0.43649300
H        0.56517100       0.15262700       1.10451100
H       -1.37423100      -0.85547100      -1.09734500
H        0.72450400      -2.32975600       0.71319200
H       -0.42277200      -3.13069500      -0.47826400
H       -1.09766900      -1.37681700       1.79266000
H        0.47448900       0.98196800      -1.84565700
H        1.59780300      -0.18662500      -1.17949300
H        1.44427400       2.76559000      -0.37885200
H        2.69388500       2.00539400      -1.35306200
H        2.52777900       1.58683300       0.34805300
