13
Properties=species:S:1:pos:R:3 pbc="F F F"
C       -3.01213800       0.03654500       0.16106100
C       -1.80519900      -0.04607200       0.12113500
C       -0.36491000      -0.09794500       0.04781900
N        0.33607700      -1.19866700      -0.01336800
C        1.75123400      -0.80834900      -0.08245200
C        1.76936400       0.73530500      -0.18263900
N        0.37656500       1.09042000       0.08335300
H       -4.07348000       0.07273200       0.20977300
H        2.24332000      -1.29512300      -0.93889500
H        2.27982300      -1.16403500       0.81706900
H        2.08870300       1.09053400      -1.17946000
H        2.45126200       1.20318500       0.54722300
H       -0.00823500       1.93353300      -0.33515900
