17
Properties=species:S:1:pos:R:3 pbc="F F F"
N       -2.41079200      -0.72213400       0.49372000
C       -1.39107300      -0.68284300       1.54209900
C       -1.29789600       0.22063300       0.35982300
C       -0.30279500      -0.02704500      -0.76767400
C        1.00721200       0.72527700      -0.56596200
N        2.16480700       0.28234700      -1.34626500
C        2.18174100       0.09850300       0.10519300
H       -3.26126300      -0.24358500       0.79739700
H       -0.75356700      -1.56597500       1.60169100
H       -1.68140800      -0.26333200       2.50781900
H       -1.54430000       1.27769800       0.53337600
H       -0.10330600      -1.09796500      -0.85368300
H       -0.75284400       0.28351700      -1.72001900
H        0.90044200       1.81272000      -0.44626500
H        2.74830400       1.07634500      -1.61776300
H        2.86119200       0.72952100       0.68244100
H        2.12550200      -0.93758800       0.44195200
