19
Properties=species:S:1:pos:R:3 pbc="F F F"
C        0.63645900       1.11569700       2.49756000
C       -0.40363300       1.13375900       1.38157300
C        0.08909700       0.46766100       0.10109600
C       -0.90799000      -0.08916800      -0.90604600
C       -0.04792400      -1.01917100      -0.08625500
N        1.05010600      -1.76196900      -0.69025100
N       -0.67144800       0.03339400      -2.33646100
H        0.24436600       1.57967500       3.40047600
H        1.53330300       1.65777300       2.20421800
H        0.92907000       0.09685400       2.74182200
H       -0.68857100       2.17241000       1.17104700
H       -1.31453800       0.63005400       1.72391100
H        0.99207400       0.90943400      -0.32444600
H       -1.96591000      -0.02295000      -0.62646700
H       -0.55134800      -1.57066400       0.71612100
H        1.70435500      -1.14211200      -1.15902400
H        0.70621900      -2.44849400      -1.35864300
H        0.19869800      -0.42220000      -2.60056000
H       -0.63437600       1.00758300      -2.62904500
