18
Properties=species:S:1:pos:R:3 pbc="F F F"
C       -3.18056600      -0.25187100       0.06829900
C       -1.69584100      -0.06688000       0.04491900
C       -0.91207400      -0.44815400      -0.97089300
C        0.58686500      -0.29907800      -1.03305500
C        1.19736900       0.58154200       0.04801800
C        2.63197200       0.44454900       0.43038500
N        1.57630700      -0.04825500       1.31515500
H       -3.69189300       0.70572100       0.18281400
H       -3.48245000      -0.87336400       0.91327000
H       -3.53937400      -0.72244500      -0.84444100
H       -1.25471700       0.40343600       0.92258400
H       -1.36845900      -0.92897700      -1.83742800
H        0.85713900       0.10174600      -2.02167600
H        1.04844200      -1.29438400      -0.98840300
H        0.76788900       1.58937700       0.12377500
H        3.18166300       1.33187000       0.75173600
H        3.24745700      -0.32786300      -0.03336500
H        1.43380800       0.59201700       2.09900600
