20
Properties=species:S:1:pos:R:3 pbc="F F F"
C       -1.66317300       2.26419200      -0.77138900
C       -1.84090300       0.90441500      -0.10605300
C       -1.10587100      -0.23722900      -0.82398400
C        0.42757800      -0.16129700      -0.75310100
C        0.98232100      -0.41342300       0.64324600
C        2.34838800      -0.97502100       0.84413300
N        1.16348600      -1.80757100       1.05702400
H       -2.22189800       3.03022600      -0.23750500
H       -2.01962300       2.24532000      -1.79942900
H       -0.61763000       2.56506000      -0.78778200
H       -2.90897900       0.66311200      -0.07192400
H       -1.50956500       0.96212500       0.93617500
H       -1.41098600      -0.24966500      -1.87629200
H       -1.43154800      -1.19120400      -0.39731000
H        0.76705900       0.81881000      -1.11005400
H        0.84915900      -0.90321500      -1.43806800
H        0.61756900       0.26953600       1.42214600
H        2.91884300      -0.68068500       1.72788900
H        2.95699400      -1.24680300      -0.01965200
H        0.97616400      -1.91944400       2.05552700
