19
Properties=species:S:1:pos:R:3 pbc="F F F"
C        1.38545900      -2.45258700      -0.31249100
C        1.74444700      -0.97798200      -0.16240800
C        0.57439500      -0.13762300       0.33660700
N        0.63499200       1.32169100       0.19351900
C       -0.32754400       0.57306400      -0.62326900
C       -1.81953900       0.77238100      -0.37383700
N       -2.09649500       1.30243000       0.95662000
H        2.23990200      -3.02721600      -0.66328900
H        0.57421600      -2.58927000      -1.02486000
H        1.06617500      -2.87433000       0.63856500
H        2.09449800      -0.58455400      -1.12311000
H        2.58656100      -0.88233900       0.53383000
H        0.14903600      -0.47198400       1.29142700
H        1.44484700       1.59857900      -0.36651700
H       -0.06606200       0.47197400      -1.68597500
H       -2.34393800      -0.19440100      -0.55673300
H       -2.22156000       1.46851900      -1.12996100
H       -1.55210400       0.82109400       1.66608900
H       -3.08435800       1.23156300       1.18195000
