16
Properties=species:S:1:pos:R:3 pbc="F F F"
N        2.46253700       0.94192600      -0.53213900
C        1.66407000       0.67785100       0.26064000
C        0.73212700       0.41096900       1.31882200
C       -0.47605500      -0.16611700       1.19771600
C       -1.16256200      -0.66899300      -0.05909000
C       -2.00576500       0.45836300      -0.68612900
C       -0.21545500      -1.29090800      -1.09122500
H        1.07156800       0.73689100       2.30272400
H       -1.06463300      -0.25919600       2.11144200
H       -1.86286700      -1.45644900       0.26587200
H       -1.37037500       1.26797900      -1.03749300
H       -2.70765100       0.86733400       0.03759400
H       -2.57318600       0.08041300      -1.53393500
H        0.42342500      -0.54279700      -1.55169000
H       -0.79090000      -1.76866900      -1.88155600
H        0.41870600      -2.04598400      -0.63239000
