20
Properties=species:S:1:pos:R:3 pbc="F F F"
N       -0.94533600       1.54911200       1.40607600
C       -1.03210100       1.94481200       0.00001300
C       -0.60721400       0.79026400      -0.92309200
C        0.86349400       0.48521900      -0.80562800
C        1.50175100      -0.61554500      -0.38276500
C        1.02769100      -1.95178400       0.13517500
C       -0.46322900      -2.22516800       0.25642200
H       -1.12292100       2.34205000       2.01694700
H       -0.02068700       1.17730600       1.60985500
H       -0.40852700       2.83817700      -0.21948300
H       -2.07057200       2.23149800      -0.22785500
H       -0.81634200       1.08694200      -1.95975000
H       -1.22473700      -0.08268400      -0.71797200
H        1.50164400       1.31593800      -1.11696900
H        2.59305900      -0.56265300      -0.40402800
H        1.49208200      -2.10107500       1.12066400
H        1.47769300      -2.72781700      -0.50045400
H       -0.95034500      -1.51334400       0.91782800
H       -0.61787700      -3.22084200       0.66974800
H       -0.95746900      -2.19407300      -0.71180800
