17
Properties=species:S:1:pos:R:3 pbc="F F F"
C       -0.22290000       2.43958000       0.40009000
C       -0.49485800       1.56216400      -0.81687200
C        0.22406700       0.21945300      -0.74053800
C       -0.29652700      -0.98839500      -1.46837100
N       -0.43194400      -0.86842000      -0.02340700
C        0.25013200      -1.70850200       0.87777600
N        0.97994200      -1.30074500       1.85937400
H       -0.75657100       3.38423500       0.32161500
H        0.83879400       2.66009100       0.49373600
H       -0.54371600       1.94499000       1.31393800
H       -0.17890900       2.09014700      -1.72450400
H       -1.57072400       1.39027200      -0.91502000
H        1.31248700       0.28039200      -0.60674800
H        0.41398400      -1.72732300      -1.84703600
H       -1.22773700      -0.91894000      -2.03591800
H        0.03742200      -2.78566200       0.76049700
H        1.07949600      -0.27984600       1.87515400
