20
Properties=species:S:1:pos:R:3 pbc="F F F"
C       -1.34249400       1.31614700      -0.62100400
C        0.18623700       1.26672200      -0.50105200
C        0.70297200      -0.17198100      -0.27220500
C        0.23395400      -0.77986900       1.04329800
N        0.44780100      -2.21815600       1.22832000
C       -0.92264500      -1.71757600       1.11708800
C        0.84793200       1.88933200      -1.73761300
H       -1.81939100       0.92756000       0.27630100
H       -1.68708500       0.72534400      -1.46745100
H       -1.68440300       2.33890400      -0.76618900
H        0.47459600       1.87107500       0.37527100
H        1.79961700      -0.15496000      -0.28706700
H        0.39444500      -0.81517800      -1.10160100
H        0.41306400      -0.15479900       1.92934600
H        0.67714000      -2.43121300       2.20128100
H       -1.53633700      -1.73356300       2.02065600
H       -1.44765200      -2.00473000       0.20500700
H        0.60129500       1.32831200      -2.63671600
H        1.93127600       1.89919200      -1.63654800
H        0.51309000       2.91449800      -1.88159500
