18
Properties=species:S:1:pos:R:3 pbc="F F F"
C       -0.39715100      -0.27491600      -2.18163100
C       -0.76505700      -0.17459300      -0.70384400
C       -0.17405800      -1.31031100       0.18724800
C        0.61672800      -0.42867200       1.16740500
C       -0.38542700       0.68606800       1.51446900
C       -0.11296000       1.01975100       0.03748400
N        1.30547300       0.52394000       0.21402800
H       -0.80272400      -1.18382800      -2.62357300
H        0.68263900      -0.28910900      -2.31079400
H       -0.79259900       0.57282900      -2.74014300
H       -1.86213200      -0.13580900      -0.60964700
H        0.47151300      -1.99023800      -0.37435400
H       -0.94596200      -1.90968100       0.68021400
H        1.23989200      -0.92265700       1.92941800
H        0.01840400       1.42882300       2.20652500
H       -1.40149900       0.40748500       1.81547600
H       -0.24792600       2.03113300      -0.37705100
H        1.80963400       1.21951200       0.77894300
