20
Properties=species:S:1:pos:R:3 pbc="F F F"
C       -2.39263500       0.51733600       1.37012800
C       -0.87566500       0.62819100       1.27642100
C       -0.33121600       0.22270300      -0.09990400
C       -0.36404100      -1.27975900      -0.44571800
N        1.11498900      -1.33984400      -0.45480400
C        1.21400600       0.13117200      -0.22435500
C        1.85647000       0.91239000      -1.36754200
H       -2.74234800       0.80552500       2.35944600
H       -2.72244000      -0.50294200       1.18350700
H       -2.87969600       1.16226100       0.64102500
H       -0.41600500       0.00294200       2.04896500
H       -0.57186300       1.65916700       1.49318000
H       -0.79152400       0.85117000      -0.87637100
H       -0.82367600      -1.51637500      -1.41879600
H       -0.82113200      -1.93814000       0.31057100
H        1.50213800      -1.63344500      -1.35458500
H        1.74973000       0.35975700       0.71878200
H        1.35229700       0.71939500      -2.31316100
H        2.90277100       0.63352600      -1.48393200
H        1.81531500       1.98386900      -1.17917700
