16
Properties=species:S:1:pos:R:3 pbc="F F F"
C       -1.60821700      -0.70801100      -0.28893400
C       -1.42012200       0.60420200      -0.11190300
C       -0.07723400       0.86450900       0.52192200
N        0.56344000      -0.48584800       0.63735700
C       -0.41912600      -1.50525300       0.18511300
C        1.60198000      -0.08623200      -0.35942900
C        1.06998700       1.35116000      -0.39094100
H       -2.49980700      -1.16362500      -0.71087900
H       -2.13220300       1.38360200      -0.36798600
H       -0.16621700       1.40798300       1.48520900
H       -0.69393400      -2.18936900       1.01173500
H        0.00703900      -2.14172600      -0.60834000
H        1.52573700      -0.62229300      -1.31836700
H        2.63091500      -0.21015000       0.01580000
H        0.77038100       1.72332800      -1.37386100
H        1.73040600       2.09093200       0.07022700
