20
Properties=species:S:1:pos:R:3 pbc="F F F"
C       -2.37648000      -0.20642800      -0.97789200
C       -0.84450400      -0.17066600      -0.93028000
N       -0.28303600      -1.37923900      -0.28447200
C        0.95914600      -1.02988000       0.42766600
C        1.13463100       0.49904700       0.28449600
C       -0.26688100       0.99329500      -0.11205000
C        1.71036400       1.17796900       1.52656900
H       -2.72685300      -1.06648300      -1.54555500
H       -2.77029000       0.69062500      -1.45186100
H       -2.79815200      -0.27290900       0.02263800
H       -0.47078900      -0.08918100      -1.97833200
H       -0.14454600      -2.13666200      -0.95371600
H        1.82407200      -1.57653800       0.01689000
H        0.89136700      -1.32120800       1.49278300
H        1.81748700       0.69262200      -0.55899400
H       -0.23932800       1.92917400      -0.67703000
H       -0.87477200       1.17013900       0.78105900
H        1.07223700       1.01673900       2.39360200
H        1.80451500       2.25213800       1.37627100
H        2.69864300       0.78619800       1.76249700
