20
Properties=species:S:1:pos:R:3 pbc="F F F"
C       -1.50268200      -1.73042000       0.67439800
C       -1.75338400      -0.22751500       0.66307700
C       -0.92394400       0.53337000      -0.38380700
C        0.59253500       0.47564900      -0.16742400
C        1.10145900       1.04147600       1.15124200
C        1.37658600      -0.60495400      -0.84401100
N        1.43410900       0.77436700      -1.33996600
H       -2.14626200      -2.22090500       1.40163000
H       -0.47105600      -1.95679200       0.93458700
H       -1.70512000      -2.16876800      -0.30084600
H       -1.55329200       0.18255200       1.65820300
H       -2.81486400      -0.04363900       0.46567600
H       -1.24342800       1.58290300      -0.38016900
H       -1.15814300       0.14457200      -1.38091300
H        0.76439300       0.44340700       1.99751000
H        0.74358400       2.05945000       1.30345200
H        2.18794900       1.06176000       1.16382900
H        0.85195800      -1.33167200      -1.46764100
H        2.30043300      -0.97228000      -0.39445800
H        0.86167300       0.87320200      -2.18194500
