18
Properties=species:S:1:pos:R:3 pbc="F F F"
C       -2.07987000       0.75482900       0.10433700
C       -0.66011000       0.29106700      -0.15514200
C       -0.42151500      -1.18660900      -0.46621400
C        1.04608500      -1.43714100      -0.08817000
N        1.41581500      -0.37270200       0.86631400
C        0.51365300       0.75430600       0.64782500
C        0.33944400       1.25068800      -0.77134600
H       -2.54512700       0.17275800       0.90021200
H       -2.70138800       0.64626800      -0.78522100
H       -2.10099100       1.80250900       0.39832500
H       -0.62190200      -1.44413800      -1.51239700
H       -1.09378700      -1.80341700       0.14134700
H        1.68643900      -1.40488000      -0.99045900
H        1.19754700      -2.43432900       0.35776900
H        2.39927900      -0.10900300       0.76532500
H        0.41851500       1.45955200       1.47853500
H        1.01180500       0.88344800      -1.53999300
H        0.01278400       2.27730500      -0.90537500
