15
Properties=species:S:1:pos:R:3 pbc="F F F"
C       -1.83138700      -0.27405400      -1.27709200
C       -0.35423500      -0.06567600      -0.92944300
N        0.24939600      -1.30526800      -0.37914700
C        0.67407500      -1.06175400       0.81401200
N        0.45378700       0.26720700       1.33342200
C       -0.13612800       0.98091500       0.17840000
C        1.26404700       1.26893200       0.59395700
H       -1.94379900      -1.07683100      -2.00196600
H       -2.25961400       0.63230100      -1.70322700
H       -2.40800700      -0.53667200      -0.39274000
H        0.18793300       0.20282200      -1.85885900
H        1.15503700      -1.81740800       1.44269100
H       -0.92243100       1.70489500       0.41130400
H        1.48394500       2.17635200       1.15906300
H        2.08642300       0.89079400      -0.01519500
