20
Properties=species:S:1:pos:R:3 pbc="F F F"
C       -1.07758500      -1.03584000      -2.20613800
C        0.12697500      -0.81091100      -1.30078200
C       -0.25327300      -0.67190700       0.19993200
C        0.98492100      -0.58206800       1.11150500
C        1.25291500       0.91915500       1.28928700
C       -0.01825800       1.63378500       0.80239300
N       -0.98901100       0.57431400       0.49672900
H       -0.77159800      -1.11901600      -3.24723500
H       -1.78753500      -0.21329300      -2.13489800
H       -1.60292300      -1.95052900      -1.93684300
H        0.66832300       0.08384300      -1.62389900
H        0.82142300      -1.65045400      -1.41521700
H       -0.87829200      -1.54582300       0.47476400
H        1.84667300      -1.11216500       0.69607700
H        0.76869400      -1.04425700       2.07951900
H        2.12349300       1.23631200       0.70693900
H        1.47839700       1.16058500       2.33209500
H        0.20226400       2.25800800      -0.08627200
H       -0.42185800       2.32378400       1.56355500
H       -1.61814700       0.83953000      -0.26287300
