16
Properties=species:S:1:pos:R:3 pbc="F F F"
C       -2.46179500      -0.00286200       0.10344900
C       -0.96768700       0.04557900       0.17640000
C       -0.20241600       1.15187800       0.25352600
C        1.25275100       0.80018100       0.23588200
C        1.31062600      -0.69504000       0.15681700
C       -0.12422700      -1.21711000       0.15173100
N        1.70177400       0.11882000      -0.99558300
H       -2.89081100       0.99633100       0.12089000
H       -2.87795800      -0.56745600       0.94004500
H       -2.79407400      -0.50023500      -0.80950900
H       -0.58416400       2.16758300       0.29703600
H        1.99868700       1.41920900       0.74154600
H        2.10742500      -1.28833000       0.61507700
H       -0.32807500      -1.84945200       1.02603700
H       -0.34609700      -1.83341300      -0.72884500
H        0.95912900       0.12827600      -1.70002600
