16
Properties=species:S:1:pos:R:3 pbc="F F F"
C       -1.96774300      -0.38119900       0.60976600
C       -0.52075400      -0.02492200       0.90238900
C        0.23919700       1.08074700       0.10272500
C        0.08273600       0.57021000      -1.34935600
C        0.37589500      -0.72978200      -1.21610500
C        0.67102500      -0.83433200       0.29902800
N        1.50582900       0.39311300       0.52260700
H       -2.63485100       0.40908800       0.95204800
H       -2.25009400      -1.29722500       1.12739400
H       -2.14229000      -0.52964400      -0.45370300
H       -0.37817900       0.11795100       1.98228100
H        0.14005200       2.15735400       0.31402200
H       -0.21269500       1.11975100      -2.23667800
H        0.38087400      -1.51271200      -1.96685000
H        1.02959600      -1.78779600       0.71844900
H        2.24464900       0.48711300      -0.18589100
