16
Properties=species:S:1:pos:R:3 pbc="F F F"
C       -3.16883800       0.22529400       0.62416000
C       -1.71178900       0.23225000       0.63456800
C       -0.50034000       0.23500900       0.60581900
C        0.95409400       0.23572500       0.67713500
C        1.77286900       0.94977400      -0.35742300
N        1.76390800      -0.51067800      -0.30464400
C        1.05199500      -1.20345500      -1.38140800
H       -3.55799200       1.02178400      -0.01327400
H       -3.56437400       0.37401700       1.63050800
H       -3.55005200      -0.72625400       0.24830100
H        1.35071000       0.19539300       1.70109900
H        2.70981500       1.42821000      -0.06261300
H        1.25173400       1.42751800      -1.18990400
H        1.74036400      -1.38980200      -2.21153900
H        0.19418100      -0.63407900      -1.76757000
H        0.69031400      -2.16962100      -1.01960900
