16
Properties=species:S:1:pos:R:3 pbc="F F F"
C       -1.10385500       1.51593300       1.02424800
C        0.34343500       1.07330000       1.03003800
N        1.22019500       1.55652100      -0.04565900
C        0.92505600       0.12194100       0.03075300
C        0.12605000      -0.47953200      -1.12405500
C       -0.50852000      -1.75127700      -0.77274800
C       -1.02895400      -2.80410400      -0.48893600
H       -1.21043000       2.48452300       1.51172800
H       -1.73016200       0.80450600       1.56138200
H       -1.48735400       1.60937300       0.01162600
H        0.80050400       1.04806000       2.02874500
H        2.15823200       1.75765600       0.30781800
H        1.74673100      -0.51338300       0.38659300
H        0.79209700      -0.64374200      -1.98319000
H       -0.64074600       0.22839500      -1.45934900
H       -1.48951200      -3.72860200      -0.24153700
