17
Properties=species:S:1:pos:R:3 pbc="F F F"
C       -2.81464100       0.60501100       0.65944900
C       -1.30237500       0.64416200       0.70762300
C       -0.52989200       1.41996600      -0.32230200
C       -0.48729300      -0.08143500      -0.33074900
N        0.72715900      -0.74868600       0.07895000
C        1.92977600      -0.59796400      -0.58653100
N        2.99656700      -1.29679700      -0.35379700
H       -3.24412900       1.49895400       1.11006200
H       -3.20156800      -0.25634900       1.20321500
H       -3.17206900       0.54292700      -0.36613000
H       -0.88133000       0.65638400       1.71357200
H        0.35904700       1.94819600       0.00562000
H       -1.08649600       1.91339900      -1.11233700
H       -1.05198300      -0.57877500      -1.13640000
H        0.63660700      -1.54267600       0.70949400
H        1.94574600       0.20320300      -1.34074200
H        2.85664100      -2.00532400       0.37263800
