20
Properties=species:S:1:pos:R:3 pbc="F F F"
C        1.66984500      -0.95124300       0.96249000
C        0.68206000      -1.47686000      -0.07347200
C       -0.65014300      -0.70508800      -0.20697600
N       -1.22306000      -0.14602700       1.04768600
C       -0.98814600       1.23754700       0.58605100
C       -0.64335700       0.72492800      -0.82534900
C        0.59825600       1.26790100      -1.52024000
H        2.59151300      -1.52877200       0.92919000
H        1.26951300      -1.03411300       1.97117400
H        1.92320800       0.09212800       0.79069300
H        0.45138600      -2.52034400       0.17005900
H        1.16635700      -1.50023400      -1.05595000
H       -1.36794400      -1.38052900      -0.71797700
H       -0.70690200      -0.39638500       1.89347500
H       -0.14696500       1.73366400       1.09840800
H       -1.86972900       1.89437400       0.67037700
H       -1.50155200       0.84164600      -1.50348200
H        1.46792300       1.26641200      -0.86692900
H        0.43299200       2.29423800      -1.84543500
H        0.84053600       0.67699300      -2.40242700
