18
Properties=species:S:1:pos:R:3 pbc="F F F"
C        1.12163600       0.27202100       1.74527100
C        0.57509000       0.18281500       0.32604000
C        1.35591800      -0.57595800      -0.69851100
N        1.36651900       0.89109400      -0.69870500
C       -0.94473400       0.25889700       0.23885400
C       -1.78121700      -0.97346400       0.04901300
C       -1.69016400       0.04436000      -1.04304000
H        2.20840100       0.27460000       1.74137300
H        0.78494200      -0.57056900       2.34904200
H        0.78420800       1.18398200       2.23751100
H        0.83221000      -1.07050300      -1.51883600
H        2.30140900      -1.04297000      -0.41804500
H        0.75333300       1.24644500      -1.43687500
H       -1.37631600       1.01095600       0.90322800
H       -2.71508400      -1.05174500       0.59672300
H       -1.26877200      -1.91841700      -0.10229500
H       -2.56032700       0.66510000      -1.23166600
H       -1.12880600      -0.21655800      -1.93498300
