18
Properties=species:S:1:pos:R:3 pbc="F F F"
C       -1.75044600       1.97447300       0.77985300
C       -0.89420900       0.74969700       1.09076800
C       -0.43153500      -0.00206900      -0.14968000
C       -1.29754500      -0.50299900      -1.04078700
C        1.06106600      -0.13171200      -0.32419200
C        1.70856400      -1.30998800      -0.96278100
N        1.76355400      -1.13528000       0.48890600
H       -2.06937000       2.46287000       1.69875300
H       -2.64100400       1.69729200       0.21994600
H       -1.19669400       2.70049400       0.18788900
H       -1.46635900       0.06789700       1.73109600
H       -0.02123200       1.05554100       1.67531200
H       -2.36744000      -0.39406400      -0.91016700
H       -0.95677400      -1.04143800      -1.91708700
H        1.58330300       0.83195600      -0.41961300
H        2.63638500      -1.16361800      -1.52021600
H        1.09778800      -2.14563600      -1.30524800
H        2.68115100      -0.78874500       0.77790000
