20
Properties=species:S:1:pos:R:3 pbc="F F F"
C       -1.27167700      -1.62351100       1.07944200
C       -0.87333700      -0.15144000       1.06370500
C       -0.14559600       0.25321100      -0.22102900
N        1.09640500      -0.48788100      -0.47569900
C        2.20849300      -0.14147100       0.40936700
C       -0.96367200       0.61858200      -1.42069400
C       -0.22811300       1.69779200      -0.66726900
H       -1.77280400      -1.88075300       2.01071000
H       -0.39647000      -2.26089700       0.97734800
H       -1.94830700      -1.85326300       0.25872100
H       -0.23614500       0.05931600       1.93076800
H       -1.76475400       0.47327200       1.17932900
H        1.37951700      -0.35686900      -1.44924100
H        1.96439600      -0.39100800       1.44531100
H        2.47448000       0.93036300       0.37667100
H        3.09211000      -0.71585200       0.12153600
H       -2.04556900       0.60158500      -1.33621200
H       -0.58852000       0.35605600      -2.40523600
H       -0.82532800       2.39511500      -0.08816000
H        0.63597400       2.13912500      -1.15278400
