17
Properties=species:S:1:pos:R:3 pbc="F F F"
C       -2.34897700      -0.01487300      -0.70538900
C       -0.82550300      -0.14660100      -0.82920600
C       -0.24590000      -1.41706700      -0.15570300
C        1.08919600      -0.98444700       0.46085300
C        1.01751100       0.53679300       0.49916400
N        1.85546600       1.37112400       1.04167600
N       -0.11765400       0.93823900      -0.15985800
H       -2.84698100      -0.84808200      -1.19567100
H       -2.69545500       0.90569500      -1.17145600
H       -2.65829900      -0.00123900       0.33727900
H       -0.57147900      -0.15575100      -1.91501200
H       -0.13290800      -2.23548900      -0.87031600
H       -0.92690800      -1.77115800       0.62363600
H        1.93752300      -1.29838600      -0.15681500
H        1.25203600      -1.41311700       1.45322100
H        2.63225600       0.89796700       1.50577300
H       -0.27242100       1.91119000      -0.40167800
