14
Properties=species:S:1:pos:R:3 pbc="F F F"
C       -2.07390600       0.27211900       0.53083600
C       -0.91905500       0.10258800      -0.13336600
C       -0.52602800       1.02902700      -1.17233800
N       -0.19735600       1.75309900      -2.00852100
C        0.03022700      -1.05029200       0.13435600
C        1.42232800      -0.58883500       0.48558800
C        2.09073000      -0.99472400       1.56438500
H       -2.73602600       1.10006000       0.30919900
H       -2.37072300      -0.41831800       1.31124800
H        0.08465900      -1.66864900      -0.77472900
H       -0.37596100      -1.68444800       0.92695700
H        1.88451100       0.11124400      -0.20971100
H        1.65353800      -1.68653300       2.27529300
H        3.09571700      -0.64435400       1.76462900
