20
Properties=species:S:1:pos:R:3 pbc="F F F"
C       -0.88272600       1.50093100       0.96625900
C       -0.00793800       0.28913500       0.60891200
C       -0.90583600      -0.93103000       0.33205000
C       -1.22133700      -1.44127100      -1.03144800
N       -0.33785300      -2.19657900      -0.13954300
C        0.96837700       0.61712400      -0.54391900
C        2.07572500       1.58306700      -0.13929200
H       -0.27478900       2.34774600       1.27663100
H       -1.56041500       1.25938400       1.78314300
H       -1.48426000       1.81551900       0.11537900
H        0.59799300       0.04636700       1.49898900
H       -1.68009800      -1.06910700       1.09844400
H       -0.76529900      -0.96487900      -1.90109600
H       -2.19105400      -1.90339800      -1.22506200
H        0.63973700      -2.07967300      -0.41679700
H        0.41284500       1.03647400      -1.38934500
H        1.42784600      -0.31009000      -0.90513800
H        1.67229400       2.54354800       0.17378000
H        2.75065400       1.76285800      -0.97356000
H        2.66192400       1.18357200       0.68606200
