19
Properties=species:S:1:pos:R:3 pbc="F F F"
C       -1.66221200      -0.28261200       0.42362500
C       -0.16949400      -0.17690700       0.07156600
C        0.06387000      -0.18171100      -1.45845200
N       -0.42514000       1.05026200      -2.08436400
C        0.59118700       0.92861200       0.85249000
C        1.29219400      -0.19577700       1.62061500
N        0.66045800      -1.22497700       0.76292300
H       -2.21866300       0.57216000       0.04283400
H       -1.80646400      -0.31861700       1.50195400
H       -2.09917700      -1.18439400      -0.00376400
H       -0.40901500      -1.08604200      -1.89700800
H        1.14033400      -0.26692700      -1.65676800
H       -1.42729900       1.15453000      -1.94775800
H       -0.23662200       1.04161100      -3.08333700
H       -0.03259200       1.59248600       1.45630800
H        1.25059200       1.54157100       0.23448600
H        1.00362600      -0.27056200       2.68114600
H        2.39296900      -0.20183400       1.57259200
H        0.10181200      -1.90060400       1.29033900
