20
Properties=species:S:1:pos:R:3 pbc="F F F"
C       -1.94676000      -0.35722200       0.32187600
C       -0.42467100      -0.42587500       0.46320700
N        0.03730200      -0.52381900       1.84984300
C        0.37318600      -1.20145000      -0.55702500
C        0.48032400       0.30906000      -0.50952600
C       -0.12583500       1.10860200      -1.65671700
C        1.77787000       0.90683700       0.01947400
H       -2.41627900      -1.18638100       0.85138500
H       -2.26401700      -0.40771800      -0.71631300
H       -2.34015400       0.56508000       0.74980400
H       -0.34300100      -1.35721400       2.29446300
H       -0.26516600       0.28650900       2.38695800
H       -0.16121200      -1.64475100      -1.39193000
H        1.22017500      -1.77762200      -0.20001300
H       -0.97645400       0.59991600      -2.10365100
H        0.61294800       1.26857800      -2.44164700
H       -0.45911700       2.09018400      -1.31922700
H        2.17285000       0.31622600       0.84136000
H        1.62002300       1.92435300       0.37737000
H        2.53360400       0.94985400      -0.76519500
