20
Properties=species:S:1:pos:R:3 pbc="F F F"
C        0.01675600      -2.24241500       0.91969000
C       -0.65016300      -0.87209700       0.90891800
C       -0.18518700       0.04855500      -0.25848000
N       -0.48311200      -0.53434100      -1.58108700
C       -0.68481000       1.51211000      -0.10785900
C        0.75548300       1.96786300       0.16084000
C        1.27573700       0.55335300      -0.12674300
H       -0.32829400      -2.83220700       1.76630500
H        1.09872400      -2.15218600       0.99489000
H       -0.20977400      -2.80087100       0.01320200
H       -0.45119600      -0.36700600       1.85946700
H       -1.73716200      -0.99840200       0.84851400
H       -1.47310600      -0.75820700      -1.65538800
H        0.04968800      -1.38993900      -1.71994300
H       -1.39128100       1.69055600       0.70750600
H       -1.10934100       1.92286900      -1.02538900
H        0.92758600       2.29927000       1.18802100
H        1.12948600       2.74548700      -0.50922700
H        1.86336500       0.09937500       0.67555400
H        1.84619200       0.47743600      -1.05410300
