20
Properties=species:S:1:pos:R:3 pbc="F F F"
C       -2.50918800       0.94089800       0.28040000
C       -1.55445000      -0.24752300       0.34497600
C       -0.30935900      -0.05297800      -0.51205700
C        0.95120200       0.58751100       0.03790800
C        0.93187700      -0.88275300      -0.25070700
C        1.72377900      -1.45963800      -1.40566500
N        1.04681800       1.04421700       1.41706900
H       -3.39204000       0.76249300       0.89110400
H       -2.83909000       1.12203900      -0.74056800
H       -2.03031200       1.84955900       0.63979200
H       -2.08583300      -1.15141900       0.02142200
H       -1.26085700      -0.42359100       1.38563800
H       -0.51910200       0.15635200      -1.56279800
H        1.51155600       1.21889500      -0.66033800
H        0.87917200      -1.53188100       0.62556700
H        1.74444700      -0.77168200      -2.24867500
H        1.29067800      -2.39840500      -1.75123000
H        2.75453900      -1.66100400      -1.11362700
H        0.73077400       0.32534200       2.06207700
H        0.48516800       1.88067700       1.56302900
