18
Properties=species:S:1:pos:R:3 pbc="F F F"
C       -2.10906400      -0.00235700      -0.88548300
C       -0.59099000       0.00170200      -0.76942700
C        0.04645200      -0.99116300       0.23685700
C        1.55100900      -0.76980700       0.00041000
C        1.54582500       0.77981200       0.00726300
C        0.03995100       0.98896100       0.24635600
N       -0.21327300      -0.00730700       1.35453800
H       -2.45265700      -0.87901100      -1.43339100
H       -2.45804100       0.87876100      -1.42272800
H       -2.59546300      -0.00959400       0.08872600
H       -0.14618500       0.00801500      -1.77753400
H       -0.31861600      -2.02106100       0.37362100
H        1.90036500      -1.19141600      -0.94737600
H        2.16640300      -1.19012500       0.79992000
H        1.89145400       1.21191100      -0.93717500
H        2.15914300       1.19736200       0.80979800
H       -0.33196800       2.01504800       0.39296300
H       -1.22062200      -0.01163400       1.55555300
