19
Properties=species:S:1:pos:R:3 pbc="F F F"
C       -2.93012200      -0.46050300       0.51032900
C       -1.44254500      -0.79527100       0.46626800
C       -0.73836000      -0.13681600      -0.71472900
N       -0.18734500       1.21954800      -0.57102600
C        0.74051100       0.08824800      -0.75419000
C        1.68080800      -0.30725200       0.38778300
N        2.94177400       0.44939200       0.37645600
H       -3.41209400      -0.94341300       1.35790600
H       -3.43073700      -0.79427800      -0.39647500
H       -3.08493800       0.61237300       0.59995100
H       -1.31995900      -1.88400400       0.40551600
H       -0.97227300      -0.48370600       1.40464400
H       -1.23858700      -0.30011500      -1.67784200
H       -0.20586200       1.50153200       0.41313700
H        1.21426000       0.08030900      -1.74459000
H        1.18899600      -0.15059100       1.35752300
H        1.92108500      -1.37923300       0.32162700
H        2.75103800       1.44691600       0.43872900
H        3.44631000       0.28119600      -0.49089900
