19
Properties=species:S:1:pos:R:3 pbc="F F F"
C        1.49644300      -1.08709800      -0.98230500
C        1.00947300      -1.29085100       0.44597300
C       -0.30559500      -0.63165500       0.87381500
C       -0.50320900       0.87848800       0.98523800
C       -1.34086300       0.06397300       0.02683300
N       -1.24498300       0.20643900      -1.41993300
N        0.49670200       1.80797200       0.48731600
H        2.43444100      -1.62039300      -1.12873700
H        1.67956200      -0.03744600      -1.20560100
H        0.78125900      -1.47223300      -1.70426400
H        1.80010400      -0.96307100       1.13578100
H        0.90594300      -2.36890400       0.61638000
H       -0.74767900      -1.17263400       1.71536900
H       -1.00266000       1.21751300       1.90432100
H       -2.37615100      -0.12078100       0.33257800
H       -0.32305600       0.52507300      -1.70189200
H       -1.93231600       0.88283300      -1.74518100
H        0.44172500       1.91743500      -0.52209900
H        1.43930200       1.51458800       0.73433300
