22
Properties=species:S:1:pos:R:3 pbc="F F F"
C       -1.09235900       3.03210300       0.37265200
C       -1.48488200       1.76412900      -0.37638000
C       -0.95650200       0.47272400       0.26533800
C        0.56459100       0.31025300       0.15379800
C        1.09592700      -0.97710900       0.80128800
C        0.67671500      -2.27574200       0.10033100
N        1.29968400      -2.40788000      -1.21937000
H       -1.51614400       3.91053600      -0.11002900
H       -0.01221700       3.15757100       0.40318000
H       -1.45367400       3.00638000       1.39883000
H       -1.13150600       1.82848400      -1.41124000
H       -2.57777300       1.70824300      -0.42947300
H       -1.44848900      -0.38068100      -0.21390700
H       -1.25009500       0.44252200       1.32031300
H        1.05422300       1.16534800       0.63192600
H        0.85923200       0.34498700      -0.90085200
H        0.76171700      -1.01737500       1.84424900
H        2.18931200      -0.93076800       0.82893200
H       -0.43103800      -2.33158900       0.04164100
H        0.99055900      -3.13064100       0.71837600
H        1.05967900      -1.61625300      -1.81063200
H        0.98748200      -3.25975500      -1.67788500
