19
Properties=species:S:1:pos:R:3 pbc="F F F"
C       -1.75073300      -1.70128200       0.08617700
C       -1.60977900      -0.19649200       0.29188800
C       -0.73801500       0.46288800      -0.76950900
N       -0.24761900       1.83216900      -0.54960700
C        0.72588100       0.72711800      -0.59605600
C        1.51107800       0.36949300       0.66793500
N        2.12591100      -0.96538900       0.61422500
H       -2.40424500      -2.13624500       0.83926800
H       -0.78566500      -2.20126800       0.15170200
H       -2.17270700      -1.92297500      -0.89224700
H       -1.20843300       0.00371800       1.29054800
H       -2.60609100       0.26139400       0.26755600
H       -1.08493500       0.28888300      -1.79631200
H       -0.41281000       2.11331800       0.42108900
H        1.33219100       0.72672000      -1.51163200
H        2.31063900       1.10915500       0.82073200
H        0.86161900       0.42435900       1.55229400
H        2.77871200      -1.02487900      -0.16359900
H        1.41308700      -1.67998900       0.48566900
