16
Properties=species:S:1:pos:R:3 pbc="F F F"
C       -3.28135700      -0.69875400       1.12549400
C       -1.79181500      -0.57137300       1.11309500
C       -1.04612500      -0.55160800       0.00144800
C        0.45562800      -0.44090500      -0.00039400
C        0.94714200       0.75016800      -0.84509000
C        2.40549900       0.85766300      -0.85655200
N        3.55290100       0.94435600      -0.86298900
H       -3.59014100      -1.58341200       1.68470200
H       -3.68571500      -0.77293300       0.11871800
H       -3.73987900       0.16096000       1.61690400
H       -1.30433500      -0.49261300       2.08508200
H       -1.52925300      -0.62771900      -0.97270100
H        0.89299600      -1.36175000      -0.40773200
H        0.82752900      -0.34326100       1.02361400
H        0.53121800       1.68724500      -0.45714900
H        0.59344900       0.65184700      -1.87852200
