18
Properties=species:S:1:pos:R:3 pbc="F F F"
N       -2.30218000       1.97245400       1.11794600
C       -1.04837800       1.30843100       1.47938100
C       -0.59278700       0.35660600       0.40524500
C        0.69160000      -0.00307900       0.22043000
C        1.17227100      -0.95639700      -0.78897300
C        2.48664400      -1.24766400      -0.87561900
C        0.17528400      -1.59685700      -1.71703400
H       -2.62702100       2.56603300       1.87640100
H       -3.02522300       1.28997300       0.90546100
H       -1.15008300       0.74714800       2.43844600
H       -0.27969500       2.07247000       1.66808500
H       -1.37152700      -0.06962100      -0.22687900
H        1.45854700       0.43721600       0.85907100
H        3.20533900      -0.78804000      -0.20801200
H        2.86129400      -1.94719900      -1.61216400
H       -0.57156100      -2.16264600      -1.15900900
H        0.66563400      -2.27512000      -2.41055100
H       -0.35825100      -0.84363300      -2.29705800
