18
Properties=species:S:1:pos:R:3 pbc="F F F"
C       -0.17749200      -0.58399000      -1.87069400
C       -0.78510500       0.05201000      -0.64614300
C       -1.85681500       0.85749300      -0.75226000
C       -0.16369400      -0.24832200       0.67677900
C       -0.91197000      -0.38112500       1.78505700
C        1.34184100      -0.44280500       0.73207600
N        2.05540600       0.78327800       0.36084200
H       -0.75896400      -0.35231200      -2.75961900
H       -0.13149100      -1.66832200      -1.76571900
H        0.84338400      -0.23633800      -2.03580400
H       -2.30994100       1.06208800      -1.71464900
H       -2.29083400       1.33410400       0.11757600
H       -1.99046100      -0.28130100       1.75564700
H       -0.45732100      -0.59469800       2.74530800
H        1.61978700      -1.29497300       0.07188200
H        1.64017600      -0.73399000       1.74931100
H        1.71289800       1.15216200      -0.52232200
H        3.05433000       0.61106800       0.28360500
