20
Properties=species:S:1:pos:R:3 pbc="F F F"
C        0.19351400       0.23756800      -3.00755300
C        0.80104500       1.23856100      -2.07548800
C        0.60059600       1.34026200      -0.75441000
C       -0.29209200       0.47778600       0.09859300
C        0.40013700       0.02620300       1.39446500
C       -0.51808100      -0.76844200       2.33050400
N       -0.83508300      -2.09295300       1.79099500
H       -0.45409200       0.73271500      -3.73375100
H       -0.39780900      -0.51026500      -2.48600500
H        0.96878500      -0.27711300      -3.57693800
H        1.47329300       1.95677500      -2.54600900
H        1.12317000       2.13562700      -0.22120900
H       -0.63841200      -0.39383300      -0.46430900
H       -1.19432100       1.04911300       0.36292300
H        0.76873000       0.90996300       1.92760000
H        1.27904900      -0.57663400       1.14878600
H       -1.43555700      -0.17573400       2.53666700
H       -0.01643800      -0.90213100       3.30060700
H       -1.28158500      -2.01554300       0.88107300
H       -1.45995500      -2.59389300       2.41693300
