20
Properties=species:S:1:pos:R:3 pbc="F F F"
C       -1.62168600       0.08226800      -0.24791400
C       -0.13112400       0.00955400       0.05566600
C        0.20858300      -0.06622000       1.55253900
C       -0.22380200      -1.37007500       2.21692900
C        0.75269500      -0.77932200      -0.89412300
C        0.84779000       0.73050200      -0.82795400
N        0.40416400       1.56953400      -1.93229100
H       -2.15569900      -0.73906500       0.22836200
H       -1.81730300       0.02230600      -1.31629000
H       -2.05257200       1.01257900       0.12211800
H       -0.26007800       0.77706700       2.07360100
H        1.28954300       0.05667500       1.67925200
H       -1.30482600      -1.48959900       2.18897300
H        0.08682100      -1.39168100       3.25969100
H        0.21962100      -2.22865800       1.71660400
H        0.28101000      -1.21845600      -1.76711900
H        1.56112000      -1.36747200      -0.47013500
H        1.74042800       1.13067300      -0.33507900
H       -0.49338300       1.25880400      -2.29276200
H        1.08142900       1.54984400      -2.69203400
