17
Properties=species:S:1:pos:R:3 pbc="F F F"
C       -2.55502900       0.65549600       1.06710200
C       -1.04379500       0.57564100       1.02637000
C       -0.27085800       1.34258800      -0.01013800
C       -0.35043000      -0.15923600      -0.08483400
N        0.82327000      -0.94229100       0.24037900
C        1.87031800      -1.12160300      -0.64926500
N        2.03547400      -0.50250000      -1.77369800
H       -2.88510900       1.53488700       1.61889600
H       -2.98145600      -0.21997600       1.55663400
H       -2.97044200       0.71457600       0.06339900
H       -0.56937700       0.50380600       2.00634400
H        0.67424900       1.78337100       0.28712800
H       -0.83262800       1.91499800      -0.74122800
H       -0.98666000      -0.57576500      -0.88065300
H        0.74095100      -1.60225900       1.00869500
H        2.62056600      -1.85384900      -0.30765400
H        1.27746700       0.15642400      -1.97373800
