19
Properties=species:S:1:pos:R:3 pbc="F F F"
C       -2.25795700      -0.84001900      -0.18782600
C       -0.76830800      -0.57171400      -0.36547400
C        0.20104100      -1.55246300       0.32575500
N        0.69442100      -0.48123800       1.21982200
C       -0.15238700       0.53686000       0.53210200
C        0.62529700       1.67877900      -0.16337100
N        1.65708000       1.24340500      -1.11259500
H       -2.55641500      -1.74716500      -0.71189300
H       -2.85180700      -0.01605100      -0.58137000
H       -2.51160600      -0.96277900       0.86324700
H       -0.54626300      -0.43578100      -1.43494700
H        0.97703900      -1.97182900      -0.33526800
H       -0.26699200      -2.38888100       0.86874500
H        1.69736000      -0.30393200       1.12501400
H       -0.88382800       0.99033400       1.23124500
H       -0.08507200       2.32680900      -0.69592400
H        1.10426600       2.30095300       0.60668700
H        1.24128500       0.72312700      -1.88126100
H        2.33540300       0.64137000      -0.65198200
