12
Properties=species:S:1:pos:R:3 pbc="F F F"
C       -1.53291500       1.23626000      -1.18574900
C       -0.35729500       1.03989700      -0.99027700
C        1.09299600       0.91093300      -0.86078300
C        1.60087200      -0.12134100       0.10737500
C        0.89899700      -0.95242200       0.89608900
C       -0.52904800      -1.04644300       1.00065400
N       -1.65938300      -1.21283300       1.17316400
H       -2.58598400       1.33550400      -1.28704200
H        1.51401200       1.88913000      -0.57750900
H        1.52016500       0.69479500      -1.85325800
H        2.68837600      -0.18510200       0.15850700
H        1.43747000      -1.64580100       1.54329800
