20
Properties=species:S:1:pos:R:3 pbc="F F F"
N       -1.69628600       0.76372200       1.73377800
C       -1.74504100      -0.00944400       0.48936500
C       -0.74808300      -1.17380000       0.50156300
C        0.73080800      -0.74604300       0.47062400
C        1.12152800      -0.00424300      -0.79695200
C        1.21419000      -0.63294800      -1.97725600
C        1.41294000       1.46482200      -0.66217000
H       -2.35824500       1.53449400       1.70141500
H       -0.76516900       1.14303500       1.88537200
H       -1.56069000       0.62650000      -0.40126400
H       -2.76234200      -0.41241000       0.37361900
H       -0.94750400      -1.81701400      -0.36213900
H       -0.91825900      -1.78476300       1.39400200
H        1.34720700      -1.64716700       0.56725200
H        0.95299000      -0.12555600       1.34444500
H        1.00930200      -1.69265800      -2.06599600
H        1.49429300      -0.10009700      -2.87732100
H        2.24594800       1.63097900       0.02285200
H        0.55372900       1.99550500      -0.24955000
H        1.66468700       1.91303000      -1.62017000
