18
Properties=species:S:1:pos:R:3 pbc="F F F"
C        0.55910400      -1.75243300      -1.26808900
C       -0.41028700      -0.78493600      -0.57946700
C       -0.35910200      -0.89111000       0.97171100
C        0.51339200       0.27286800       1.48240000
C        0.49760200       1.30554400       0.36453500
C       -0.05173400       0.67687400      -0.87089500
N       -0.82608400       1.68674400      -0.14199800
H        0.30296800      -2.78625800      -1.04387500
H        1.58298600      -1.58462200      -0.93980500
H        0.52973900      -1.62718600      -2.34930800
H       -1.42866300      -1.01567700      -0.93325300
H        0.02591100      -1.86007300       1.29912600
H       -1.37019900      -0.80723400       1.38240800
H        1.54089500      -0.06100600       1.66688500
H        0.13861000       0.67056900       2.43180200
H        1.25976600       2.09069900       0.34436300
H        0.27564600       0.96039900      -1.87602300
H       -1.56892100       1.25234200       0.41050000
