17
Properties=species:S:1:pos:R:3 pbc="F F F"
C       -2.62160600       0.84160800       0.30640800
C       -1.12438000       0.63059000       0.37046400
C       -0.19921700       1.51140800      -0.43191600
C       -0.36974100       0.07828300      -0.81887200
N        0.73112800      -0.85986000      -0.64479900
N        1.64486100      -0.58431500       0.33538900
C        2.34932500      -1.56682800       0.80640500
H       -2.93749900       1.63550600       0.98328300
H       -3.15964000      -0.06341800       0.58887400
H       -2.93517000       1.11731200      -0.69843700
H       -0.74290400       0.32804300       1.34579800
H        0.74159100       1.79699900       0.02641600
H       -0.64443100       2.26583200      -1.07327900
H       -0.94327500      -0.13105400      -1.72693700
H        0.45662200      -1.85045400      -0.70963700
H        3.11494300      -1.34828100       1.54859500
H        2.21155800      -2.61162700       0.48625300
