20
Properties=species:S:1:pos:R:3 pbc="F F F"
C       -2.67892100       0.41616600      -1.39351900
C       -1.16446000       0.49133400      -1.24627100
C       -0.59846200      -0.63110900      -0.36431700
C        0.92245600      -0.58938300      -0.26771300
C        1.64908100      -1.19379900       0.89139200
N        1.64007100       0.25862200       0.69668100
C        0.88265000       1.06034900       1.65701400
H       -3.04728200       1.22106900      -2.02598100
H       -3.17166800       0.49761600      -0.42667400
H       -2.98300100      -0.52784000      -1.84159400
H       -0.88542900       1.46173200      -0.82376500
H       -0.69849600       0.44370900      -2.23651800
H       -0.89864000      -1.60063200      -0.78220000
H       -1.04686400      -0.58124600       0.63231800
H        1.42563000      -0.63584000      -1.24420700
H        2.61293700      -1.68607200       0.74206500
H        1.05760100      -1.58915500       1.72163300
H        1.54731900       1.37874900       2.46685300
H        0.03482700       0.52602500       2.11373200
H        0.49850700       1.96019000       1.16806100
