15
Properties=species:S:1:pos:R:3 pbc="F F F"
C       -1.97268300       0.46576800       0.00373100
N       -0.53104600       0.41395300       0.00031800
N        0.20443100       1.54321400      -0.00486500
C        1.49272000       1.13664800      -0.00717900
C        1.57285300      -0.26962300      -0.00344200
C        0.24420100      -0.70542800       0.00133900
C       -0.32927800      -2.08575400       0.00690400
H       -2.29785400       1.50483300       0.00562400
H       -2.38590000      -0.03536400       0.88860800
H       -2.39025500      -0.03331000      -0.88034600
H        2.30264100       1.85752700      -0.01133900
H        2.45544500      -0.89211500      -0.00405300
H        0.46521200      -2.82619100       0.00511900
H       -0.95877000      -2.26455500      -0.86816300
H       -0.95109300      -2.26066200       0.88825100
