18
Properties=species:S:1:pos:R:3 pbc="F F F"
C       -0.45682000      -1.84115700      -0.02069500
C        0.25280200      -0.52247400       0.16718600
C        1.54812600      -0.51414300       0.54742200
C        2.42050700       0.68073900       0.78199400
C       -0.53304200       0.73184400      -0.07562300
C       -1.35704700       0.90531400      -1.31588600
N       -2.00251400       0.71940500      -0.02289800
H        0.24179600      -2.67218100       0.03822600
H       -0.96223000      -1.88962200      -0.98630100
H       -1.21799000      -1.99318700       0.74746700
H        2.03946800      -1.47580300       0.69497200
H        1.86577200       1.61530300       0.79053200
H        3.18817400       0.75751400       0.00821800
H        2.94463300       0.58953000       1.73433800
H       -0.09656500       1.64471600       0.34297700
H       -1.41541000       0.08280500      -2.03206000
H       -1.46068300       1.89958200      -1.75432000
H       -2.35652400      -0.23523000       0.06985400
