16
Properties=species:S:1:pos:R:3 pbc="F F F"
C       -1.30644600       0.88497200       0.66135700
C        0.18531700       0.55633100       0.51581400
C        0.76741500       0.18061600       1.81586200
N        1.23088800      -0.11010100       2.82807300
C        0.43864300      -0.56357300      -0.52792500
C        0.03368000      -0.15502800      -1.91749900
C       -0.77485800      -0.86475500      -2.70464600
H       -1.45835200       1.69133800       1.37531900
H       -1.86443100       0.01740700       1.00615800
H       -1.71763500       1.19233900      -0.29739600
H        0.71293000       1.46551400       0.17953100
H       -0.09017300      -1.47354500      -0.23117200
H        1.50963000      -0.80371400      -0.52354600
H        0.45868000       0.77943100      -2.28595300
H       -1.21395500      -1.79756700      -2.37059800
H       -1.01542200      -0.53187000      -3.70664400
