22
Properties=species:S:1:pos:R:3 pbc="F F F"
C       -1.65764500       1.36627000       0.07826100
C       -0.13133100       1.29354400      -0.06157400
C        0.34616700      -0.07733900      -0.59469800
C       -0.00579900      -1.30581600       0.29102600
N        0.39918100      -2.56377300      -0.37349200
C        0.64055100      -1.24003500       1.67864600
C        0.38088600       2.42043700      -0.97088000
H       -2.02503100       0.63657500       0.79639100
H       -2.14805500       1.17659300      -0.87442600
H       -1.96386200       2.35268800       0.42034900
H        0.30707400       1.44750500       0.93732800
H        1.43270700      -0.03955000      -0.73151500
H       -0.07868600      -0.23810300      -1.59206200
H       -1.10297000      -1.34583800       0.41824800
H        1.41132600      -2.60228100      -0.46791900
H       -0.00938400      -2.61983300      -1.30332800
H        1.72422600      -1.16782500       1.60236900
H        0.40528900      -2.13597800       2.24827700
H        0.28468600      -0.37972400       2.24082300
H       -0.02143900       2.32487500      -1.97752300
H        1.46653600       2.40058700      -1.04181000
H        0.08634800       3.39436100      -0.58543500
