19
Properties=species:S:1:pos:R:3 pbc="F F F"
N       -1.56902500      -0.39468000       1.30652100
C       -0.29369400      -1.01988900       0.93860100
C        0.35636700      -0.43218400      -0.32579600
C        1.43231600      -1.34753000      -0.90169100
C       -0.47126400       0.36028600      -1.32173500
C        0.57500800       1.04759600      -0.46989300
N        0.20049300       1.96081700       0.59763600
H       -1.89438800      -0.76377800       2.19654100
H       -2.27865100      -0.58619500       0.60352900
H       -0.41315400      -2.11550800       0.79380100
H        0.39891100      -0.90429000       1.78601100
H        1.01438100      -2.30688200      -1.20867400
H        2.20893100      -1.55180900      -0.16405300
H        1.90810500      -0.89770600      -1.77045200
H       -1.51411600       0.54162400      -1.08652900
H       -0.26512100       0.21290600      -2.37798400
H        1.48908400       1.35423700      -0.99115200
H       -0.54953000       1.55496300       1.15673100
H       -0.11713400       2.84979900       0.21621500
