18
Properties=species:S:1:pos:R:3 pbc="F F F"
C       -3.16022700      -1.16011200      -0.55255200
C       -1.67035400      -1.05193600      -0.63449500
C       -0.92010100      -0.30220500       0.18620400
C        0.55935400      -0.19604600       0.08010300
N        1.31756700       0.06047800       1.32167000
C        1.26554800       1.11408200       0.30813100
C        2.52113400       1.46081700      -0.46335800
H       -3.62766800      -0.82453700      -1.48043600
H       -3.55976500      -0.56456300       0.26495300
H       -3.46840400      -2.19641700      -0.40232400
H       -1.18587900      -1.63398300      -1.41936000
H       -1.39468500       0.27986800       0.97510700
H        1.03219100      -0.88320000      -0.63323000
H        2.21813100      -0.42376100       1.28907300
H        0.65109700       1.97432300       0.59813700
H        3.07970500       0.56558400      -0.73026500
H        3.17807800       2.10127600       0.12533800
H        2.28209900       1.99447100      -1.38287500
