19
Properties=species:S:1:pos:R:3 pbc="F F F"
C       -0.33365400       0.94886400       1.93290000
C       -0.78000800       0.89559600       0.48608100
C        0.02278500       1.59025300      -0.59217100
C       -0.05664700       0.09217400      -0.58186800
N       -0.86791300      -0.53282300      -1.63340700
C        1.19929100      -0.72610200      -0.24265800
N        0.91010500      -2.02224600       0.39024400
H       -0.67985800       1.86458800       2.41278000
H        0.74988600       0.91970400       2.01926800
H       -0.73869900       0.11047100       2.50064100
H       -1.86221400       0.96507900       0.35928900
H        0.95904300       2.05370000      -0.29586900
H       -0.52488400       2.13337300      -1.35628200
H       -1.66862700       0.04949200      -1.86448400
H       -1.20682900      -1.44361000      -1.32995100
H        1.76986700      -0.91377800      -1.16204100
H        1.85194600      -0.14638400       0.42383500
H        0.39372800      -2.62193300      -0.24815900
H        0.35069100      -1.88992500       1.22941500
