16
Properties=species:S:1:pos:R:3 pbc="F F F"
C        1.22688000      -0.09772700      -1.73196600
C        0.14134200       0.44804400      -0.78809000
C        0.74099700       1.07058200       0.40473500
C        1.22827100       1.60062400       1.37517000
C       -0.87782800      -0.64780700      -0.42477100
C       -0.72616400      -1.49907600       0.78753500
N       -1.76233700      -0.46644200       0.72605100
H        1.91271100       0.69097500      -2.03214400
H        0.77301900      -0.51417200      -2.62942300
H        1.80554800      -0.88343300      -1.25139400
H       -0.40362300       1.24513900      -1.32782900
H        1.66497000       2.06202700       2.22672900
H       -1.36841500      -1.09024300      -1.30082200
H        0.11963600      -1.31818900       1.45237800
H       -1.09097100      -2.52753400       0.77438500
H       -1.47750900       0.35268300       1.27008400
