20
Properties=species:S:1:pos:R:3 pbc="F F F"
C       -2.68345800      -1.03564500       0.25182300
C       -1.26274100      -1.35206500      -0.19879000
C       -0.20672700      -0.49276600       0.51628400
C        1.24027500      -0.64589000       0.00303300
C        1.12186300       0.79605900      -0.53285700
N       -0.20443100       0.94756900       0.13019100
C        2.17700300       1.80687000      -0.08762800
H       -3.40666800      -1.65268900      -0.27757800
H       -2.93087800       0.00711000       0.06293700
H       -2.80340200      -1.21666000       1.31807800
H       -1.18084300      -1.20933900      -1.28189300
H       -1.04800400      -2.41001700      -0.01055100
H       -0.31213300      -0.62434000       1.61165600
H        1.39884200      -1.41992700      -0.75277900
H        1.98536500      -0.77618100       0.79160900
H        1.03469100       0.82110500      -1.63807000
H       -0.95673300       1.19496700      -0.51771300
H        2.28674100       1.80721700       0.99446500
H        1.90117600       2.81348200      -0.39639900
H        3.14557800       1.57291700      -0.52628400
