19
Properties=species:S:1:pos:R:3 pbc="F F F"
C       -0.41471800       2.35141800       1.82625400
C       -0.47389600       0.83159600       1.71462900
C        0.04386700       0.32297700       0.37432300
N       -0.90125900       0.29104100      -0.75074100
C       -0.41176900      -0.98045400      -0.19886700
C        0.50692600      -1.88456800      -1.03693400
N        1.43010000      -1.18581900      -1.93456900
H       -0.78729800       2.68496600       2.79283100
H       -1.01777100       2.82030000       1.05208000
H        0.60685800       2.71233100       1.71828500
H       -1.50447900       0.49286900       1.85455600
H        0.11516100       0.38460200       2.52570000
H        1.06422600       0.64576800       0.12451500
H       -0.41661800       0.50632500      -1.62602700
H       -1.17666700      -1.53166100       0.36300700
H        1.09175900      -2.52639400      -0.35929500
H       -0.11152900      -2.56232100      -1.64286100
H        2.00923300      -0.52474000      -1.42309200
H        0.92277800      -0.68441500      -2.65895200
