16
Properties=species:S:1:pos:R:3 pbc="F F F"
N       -3.49831000       0.43454900       0.40487600
C       -2.34452900       0.40071500       0.44766400
C       -0.91196300       0.36580800       0.53588500
C       -0.12692400       0.08509700      -0.51815100
C        1.38450000       0.03355800      -0.51622000
C        2.01981000       0.34353200       0.84205300
C        1.86710900      -1.32398700      -1.05955200
H       -0.49515200       0.58154300       1.51882400
H       -0.59764600      -0.13080000      -1.47768900
H        1.72539600       0.80530600      -1.23052600
H        1.72904400      -0.38945000       1.59162600
H        1.72635700       1.32892400       1.19769200
H        3.10424400       0.32578000       0.76194000
H        1.57201000      -2.13516500      -0.39798600
H        2.95130300      -1.33655400      -1.14533600
H        1.44460200      -1.51976700      -2.04275700
