17
Properties=species:S:1:pos:R:3 pbc="F F F"
C       -1.14330600      -0.22177700       2.15009500
C       -1.13082000      -0.14708900       0.61670300
C       -0.45710100      -1.34804600      -0.03798600
N        0.61852400      -1.03873100      -0.70065700
N        0.89065100       0.31738400      -0.55604500
C       -0.26994000       1.00309100       0.05366900
C        1.56256700       0.96173900      -1.67349000
H       -1.71184300      -1.08602800       2.48896700
H       -1.59936600       0.66907300       2.57989800
H       -0.13428400      -0.30719200       2.54728300
H       -2.17747500      -0.05671100       0.27725400
H       -0.79599400      -2.38008400       0.03711900
H       -0.81949500       1.59243700      -0.70519700
H        0.05828900       1.71799000       0.82610300
H        2.37105700       0.32298600      -2.03256700
H        1.98984700       1.91794500      -1.35297300
H        0.88663600       1.17150800      -2.52292100
