15
Properties=species:S:1:pos:R:3 pbc="F F F"
C        1.64346200       1.80205900      -0.51398500
C        0.30934100       1.78951200      -0.49116800
C       -0.52500600       0.55634400      -0.37519400
C       -0.42944700      -0.55312600      -1.39894200
N        0.13132900      -0.71340500      -0.07119100
C       -0.39149000      -1.62413600       0.86968800
N       -0.73174800      -1.32600500       2.07602900
H        2.19427600       2.72905900      -0.61250000
H        2.21153400       0.88362600      -0.42308800
H       -0.24238400       2.72586200      -0.57423400
H       -1.51353300       0.70189400       0.07966300
H        0.29547500      -0.46577600      -2.21146100
H       -1.33000200      -1.12379500      -1.64249100
H       -0.40436500      -2.67675700       0.53690900
H       -0.64922700      -0.32216200       2.27094000
