19
Properties=species:S:1:pos:R:3 pbc="F F F"
C       -1.12909600       1.48201000       1.34019700
C        0.35321800       1.17491200       1.30654100
N        1.15675900       1.78000200       0.23613200
C        1.00154700       0.32008600       0.26049400
C        0.24825600      -0.33271000      -0.89014900
C       -0.27717200      -1.72672700      -0.53158900
N       -0.92541300      -2.35362900      -1.68576200
H       -1.31448500       2.42767400       1.84886300
H       -1.67739000       0.70733200       1.87632300
H       -1.54015900       1.55809900       0.33712400
H        0.82905800       1.15979100       2.29737900
H        2.07820400       2.05577400       0.58239100
H        1.88984000      -0.23918600       0.58895000
H        0.91282100      -0.41244700      -1.75808400
H       -0.58336200       0.30648700      -1.20164000
H       -0.96401600      -1.65148200       0.33880500
H        0.55627500      -2.36750900      -0.20596300
H       -1.68276300      -1.77124900      -2.03385100
H       -1.30396300      -3.26331400      -1.43585300
