19
Properties=species:S:1:pos:R:3 pbc="F F F"
C       -1.73613700      -0.01400000      -0.54956100
C       -0.24683500       0.05280200      -0.88744000
C        0.65321500      -1.06439300      -0.28901000
N       -0.01135300      -2.23764700       0.28063400
C        1.22470600       0.01437900       0.66984500
N        0.56435100       1.06403400      -0.13605900
C       -0.08920500       2.16449600       0.56166300
H       -2.19211700      -0.87686400      -1.03071800
H       -2.25291400       0.87770500      -0.90038000
H       -1.90468300      -0.09814300       0.52225200
H       -0.14061400       0.17824700      -1.98560700
H        1.40689100      -1.41256500      -1.01475800
H       -0.67515900      -1.96680300       1.00219500
H        0.67037400      -2.87097900       0.69158800
H        2.32166600       0.11516700       0.73337900
H        0.83030900      -0.06271100       1.69923300
H        0.66650300       2.79569600       1.04064000
H       -0.79297500       1.83656100       1.34920500
H       -0.64272600       2.78027500      -0.15203400
