20
Properties=species:S:1:pos:R:3 pbc="F F F"
C        0.36842600      -0.68635300       1.49137000
C       -0.10047900      -0.42605500       0.06621100
C       -1.62974300      -0.28032000      -0.08203600
N       -2.18550500       0.88998200       0.61174900
C        0.63898200      -1.09866100      -1.06427000
C        0.75717000       0.38910000      -0.87555800
C        2.06994200       1.01818000      -0.45827700
H        1.43599900      -0.88779600       1.53167500
H       -0.14983100      -1.54673400       1.91527500
H        0.16451700       0.16849400       2.13670300
H       -1.88707400      -0.20995700      -1.14842000
H       -2.12883000      -1.17949600       0.30796600
H       -1.73114100       1.74030700       0.28712600
H       -2.03129100       0.81340100       1.61403000
H        0.06525200      -1.46141000      -1.91289400
H        1.50264300      -1.70677900      -0.81380300
H        0.19911600       0.98924400      -1.59810300
H        2.64622200       0.35694600       0.18398300
H        1.90627700       1.95146800       0.08077000
H        2.68088700       1.24708800      -1.33119200
