20
Properties=species:S:1:pos:R:3 pbc="F F F"
C       -2.97874400      -0.51427700      -0.31981200
C       -1.45609500      -0.48234200      -0.35374800
C       -0.87181100       0.62452100       0.53048400
C        0.66628500       0.65647300       0.56275200
C        1.44298400       0.83007400      -0.75962700
C        2.23842100      -0.41786300      -0.36131000
N        1.33366800      -0.65672600       0.78290500
H       -3.36512800      -1.30449800      -0.96043700
H       -3.39985400       0.42937700      -0.66216600
H       -3.34516000      -0.69263900       0.68937500
H       -1.11907700      -0.34590800      -1.38677800
H       -1.05954100      -1.44749300      -0.02552800
H       -1.24258900       0.49653700       1.55401800
H       -1.23931600       1.60090600       0.19380200
H        0.98388300       1.40711000       1.31659300
H        2.01863600       1.75472200      -0.85357700
H        0.83983700       0.70805400      -1.66228700
H        3.28059700      -0.21248500      -0.06586500
H        2.25450600      -1.24164300      -1.09344900
H        1.81128800      -0.73447500       1.68353300
