18
Properties=species:S:1:pos:R:3 pbc="F F F"
C       -0.22130400       2.22717800       0.51541100
C        0.00833100       0.84954900       1.07253200
C       -0.48648400       0.47921700       2.26186300
C        0.84286500      -0.09948300       0.23393800
C        0.22207200      -0.41627700      -1.12703000
C        0.44285000      -1.74644800      -1.76221300
N       -0.86525500      -1.39286000      -1.20936000
H       -0.77259100       2.85013000       1.21503000
H       -0.78590900       2.18044300      -0.41661300
H        0.72614000       2.71807700       0.28897800
H       -1.07427300       1.16250200       2.86211500
H       -0.31706300      -0.51485400       2.65736500
H        1.00466100      -1.03036500       0.78625900
H        1.83391600       0.34809300       0.07215400
H        0.09264900       0.44894200      -1.78854200
H        1.02799400      -2.49504900      -1.22385400
H        0.48235400      -1.83276200      -2.84931300
H       -1.01107300      -1.84755400      -0.30506000
