18
Properties=species:S:1:pos:R:3 pbc="F F F"
C       -2.08447700       0.81763300       0.15489000
C       -0.68383400       0.30443200      -0.11074000
C       -0.47353300      -1.18684200      -0.38418900
C        1.02840400      -1.44333200      -0.15019500
C        1.54644000      -0.29911100       0.74499400
C        0.54462500       0.83193900       0.56492000
N        0.23934700       1.20215500      -0.82539000
H       -2.53721800       0.30373700       1.00307000
H       -2.73276300       0.65912900      -0.70719400
H       -2.07017100       1.88319000       0.37016500
H       -0.78057700      -1.47781300      -1.39438700
H       -1.08164200      -1.77938300       0.30873700
H        1.56298300      -1.44276000      -1.10531700
H        1.20705900      -2.42320400       0.30006500
H        2.56824300      -0.00848800       0.47706500
H        1.57447500      -0.60936500       1.79587800
H        0.51966300       1.65152600       1.28935600
H        0.82876700       0.68003200      -1.47779000
