20
Properties=species:S:1:pos:R:3 pbc="F F F"
C       -1.25690500      -0.10636100      -2.00924600
C       -0.94081900      -0.35555800      -0.53960800
C        0.14376200      -1.40519100      -0.21250900
C        0.78555800      -0.39784900       0.78351200
C       -0.11430400       0.72514200       0.21199500
C       -0.85084200       1.62368100       1.19800200
N        2.22935600      -0.16450000       0.71043800
H       -1.71722700      -0.98310100      -2.46224000
H       -0.35500900       0.12547900      -2.57318600
H       -1.94567500       0.72929200      -2.12173800
H       -1.87234500      -0.57956600      -0.00055100
H        0.78851300      -1.62795600      -1.06589800
H       -0.21245900      -2.35095400       0.20508900
H        0.52277600      -0.64398600       1.82557000
H        0.44974300       1.34459800      -0.49881100
H       -1.41589200       1.03717200       1.92119100
H       -1.55047000       2.27896200       0.68093800
H       -0.15094200       2.24967400       1.74898900
H        2.51160900       0.05608500      -0.24162500
H        2.74318400      -0.98737600       1.01632900
