20
Properties=species:S:1:pos:R:3 pbc="F F F"
C        0.52636500      -2.63564200       0.12825300
C        1.06583800      -1.20994000       0.18238200
C       -0.00674500      -0.19611400       0.56639700
C        0.11718200       1.27626300       0.29430900
N       -0.78050300       0.43524800      -0.51439500
C       -2.21510000       0.60254700      -0.27892500
C        1.31521100       1.90333900      -0.38790900
H        1.31274800      -3.33856800      -0.13991200
H       -0.26896100      -2.72369500      -0.60836500
H        0.12180300      -2.93764800       1.09282800
H        1.49175100      -0.94459700      -0.78937900
H        1.88958700      -1.16370900       0.90643900
H       -0.58260700      -0.46329300       1.46472200
H       -0.38104800       1.93395500       1.02168600
H       -2.59977300       1.42059900      -0.89586800
H       -2.45910700       0.82534500       0.77336300
H       -2.74743400      -0.31026500      -0.56335500
H        1.73979800       1.23884700      -1.13612500
H        2.09549700       2.14287400       0.33494900
H        1.03475800       2.83070000      -0.88725400
