17
Properties=species:S:1:pos:R:3 pbc="F F F"
C       -0.99078600       0.66000700       1.57597200
C       -1.30791600       0.78820900       0.10247100
N       -0.43131200       1.58762900      -0.76779000
C       -0.52824900       0.13286500      -0.99535500
C        0.70625900      -0.73096800      -0.83086600
C        0.85244800      -1.79426900       0.20649800
N        1.58898100      -0.53411800       0.32095800
H       -1.34569700       1.53813900       2.11592100
H        0.07862900       0.56600800       1.74614500
H       -1.48547000      -0.20974900       2.00903200
H       -2.37468400       0.94716900      -0.10641400
H        0.44327000       1.78747200      -0.27311800
H       -1.09578400      -0.11814000      -1.90209700
H        1.22178500      -0.92645500      -1.78225700
H        1.42887800      -2.69020200      -0.03398300
H        0.06750200      -1.94242600       0.94885900
H        2.56735800      -0.66145800       0.05341600
