18
Properties=species:S:1:pos:R:3 pbc="F F F"
C       -0.53246100      -0.03452900      -2.03757100
C       -0.88899600      -0.01014100      -0.55676600
C       -0.24016500      -0.99423600       0.45317200
N        1.22347700      -0.76766300       0.30805200
C        1.25238400       0.72516300       0.26526000
C       -0.24878500       1.01337200       0.41719900
C       -0.60666900       0.02460600       1.54145000
H       -0.98782700      -0.89501900      -2.52601200
H        0.54152000      -0.09074300      -2.20272700
H       -0.89853600       0.86075700      -2.53817700
H       -1.98157500      -0.00720100      -0.44208200
H       -0.51901200      -2.05808900       0.51590800
H        1.55965100      -1.15847000      -0.57724500
H        1.68665100       1.10206200      -0.67234400
H        1.84923200       1.14124300       1.09365800
H       -0.56716900       2.06513500       0.44653700
H       -1.66654500       0.02566700       1.80457900
H        0.00742100       0.04289200       2.44507800
