16
Properties=species:S:1:pos:R:3 pbc="F F F"
C        1.25967200       0.01532200      -1.18492200
C        0.15985900       0.67086000      -0.33704600
C        0.73734800       1.28475100       0.87429000
C        1.20154500       1.80254800       1.86193000
C       -1.00400400      -0.26829600       0.04902600
C       -1.54893500      -1.29065400      -0.88857800
N       -0.79228400      -1.69324200       0.29789700
H        2.01586500       0.74989300      -1.45087400
H        0.85097300      -0.39564400      -2.10589900
H        1.75445400      -0.78765600      -0.64304100
H       -0.27615900       1.49538700      -0.93356800
H        1.61118800       2.24605700       2.73591700
H       -1.71278700       0.19628500       0.74490500
H       -1.07407800      -1.43310300      -1.86136000
H       -2.61349100      -1.52950300      -0.86526700
H        0.15711000      -1.97621300       0.04571700
