16
Properties=species:S:1:pos:R:3 pbc="F F F"
C       -3.34715500       0.92747600      -0.76870300
C       -1.90398300       0.83892900      -0.58600600
C       -0.70615900       0.76825300      -0.43220600
C        0.74812400       0.68837100      -0.25069300
C        1.23831800      -0.73904500      -0.01821300
C        1.38931300      -1.29672100       1.35465200
N        2.56466300      -0.88724800       0.58371100
H       -3.78941300       1.61124600      -0.04187600
H       -3.81588800      -0.05007000      -0.64180700
H       -3.59015800       1.29199600      -1.76842300
H        1.04633800       1.31923400       0.59589100
H        1.24269800       1.10704800      -1.13952200
H        0.98843200      -1.44887600      -0.81667300
H        1.24078900      -2.36736300       1.50891900
H        1.16242600      -0.67418100       2.22105000
H        3.05139400      -1.70186900       0.20348500
