11
Properties=species:S:1:pos:R:3 pbc="F F F"
C       -2.98329800      -0.00796600      -0.00621700
C       -1.77090700       0.00195400      -0.00357600
C       -0.34080000      -0.00709900      -0.00060500
C        0.51569800       1.10192500       0.00264100
N        1.77948800       0.60899500       0.00445800
N        1.81342900      -0.73301400       0.00263500
C        0.52503400      -1.13042900      -0.00046500
H       -4.04522000      -0.00986800      -0.00849300
H        0.31189300       2.16557500       0.00378000
H        2.64357700       1.14482300       0.00684100
H        0.26497000      -2.18270000      -0.00244300
