18
Properties=species:S:1:pos:R:3 pbc="F F F"
C       -2.19285300       0.35460600       0.27325300
C       -0.77408200      -0.03453300       0.71548700
N        0.14029200       1.14622900       0.71935000
C        0.93378200       1.12707400      -0.53000000
C        0.92987600      -0.31954200      -1.01844300
C       -0.13037400      -1.04504900      -0.24864800
C        1.31701300      -1.36025100      -0.00875700
H       -2.62335300       1.08227500       0.95780200
H       -2.84595400      -0.51615200       0.25148100
H       -2.18479900       0.79499800      -0.72119600
H       -0.82762000      -0.43086100       1.74703100
H        0.77335900       1.07347300       1.51837500
H        1.94014000       1.52331900      -0.33474100
H        0.47579600       1.78246200      -1.29193600
H        1.10541000      -0.52511600      -2.07418800
H       -0.75800300      -1.79954100      -0.72221400
H        1.69121000      -2.30674500      -0.38672400
H        1.77159000      -1.03555500       0.92351000
