20
Properties=species:S:1:pos:R:3 pbc="F F F"
C       -1.49271300       0.01013100       0.54066400
C        0.03801900      -0.04915400       0.53388500
C        0.59234100      -0.86765700      -0.64360500
C       -0.04620300      -0.93017900      -1.98886100
N       -0.13207400      -2.06665000      -1.06991500
C        0.67859800       1.36013000       0.54165800
C        0.43281800       2.13847700       1.82809100
H       -1.91000500      -0.98795100       0.43309600
H       -1.86958700       0.62434300      -0.27522700
H       -1.85959300       0.43370600       1.47312100
H        0.35617300      -0.56249700       1.45795800
H        1.68836000      -0.96028000      -0.63125300
H        0.59245800      -1.04502700      -2.86785600
H       -0.98659100      -0.41119600      -2.17687800
H        0.51660300      -2.80672900      -1.34595000
H        0.30341800       1.93638700      -0.31094400
H        1.75948800       1.25737400       0.38920200
H       -0.62840100       2.31290500       1.99051500
H        0.92775600       3.10691900       1.79156700
H        0.81727800       1.59811900       2.69106500
