20
Properties=species:S:1:pos:R:3 pbc="F F F"
C       -2.98960700      -1.05760700      -0.54106700
C       -1.46755900      -1.11626700      -0.51146700
C       -0.85152600      -0.05747800       0.41044300
C        0.68329700      -0.11877700       0.42913000
C        1.43336800       0.99357500       1.19111700
C        2.22255900       1.23517500      -0.10022600
N        1.34578100       0.30118900      -0.83814800
H       -3.39485000      -1.81386800      -1.21033700
H       -3.33650300      -0.08504900      -0.88448700
H       -3.40850900      -1.22761700       0.44898900
H       -1.07652900      -0.98143600      -1.52474800
H       -1.14635600      -2.11302100      -0.18777900
H       -1.22840600      -0.19236200       1.43103300
H       -1.17416600       0.93814600       0.09004100
H        1.00817200      -1.13089700       0.74667300
H        2.01837700       0.67070300       2.05638900
H        0.80369900       1.83351100       1.49509800
H        3.27486400       0.90984300      -0.05231400
H        2.20788600       2.26371400      -0.49606300
H        1.84865300      -0.45171900      -1.31304200
