20
Properties=species:S:1:pos:R:3 pbc="F F F"
C       -0.92074200       0.02898300      -1.71806400
C       -0.99730700      -0.02565200      -0.19774800
C       -0.17085000      -1.09631500       0.57169900
C        0.88306600      -1.88213100      -0.20481800
N        0.38711500      -0.03715500       1.46258600
C       -0.23998900       1.04159300       0.64414100
C        0.75911300       1.94448300      -0.07557800
H       -1.38442800      -0.85271600      -2.15794700
H        0.10566300       0.07772900      -2.07462900
H       -1.44671500       0.90382300      -2.09745200
H       -2.05625600      -0.07004100       0.09652800
H       -0.80435500      -1.81166000       1.13441200
H        1.55359800      -1.22212000      -0.75194800
H        0.41820500      -2.55917800      -0.91920400
H        1.48755900      -2.47912700       0.47640000
H        1.40967800      -0.00365000       1.44834500
H       -0.91702600       1.67494800       1.25252900
H        1.47044600       1.36759100      -0.66365500
H        1.32443600       2.53311700       0.64539200
H        0.24964100       2.63560100      -0.74466500
