19
Properties=species:S:1:pos:R:3 pbc="F F F"
C       -0.53912000      -2.18261700      -1.17875800
C       -0.14053400      -1.54002100       0.14369800
C        0.67796600      -0.25229600      -0.04067800
N        1.14197700       0.36606200       1.23346400
C        0.63469000       1.69703000       0.83398600
C       -0.04967300       1.09009500      -0.40473200
N       -1.51240500       1.12648900      -0.36506300
H       -1.10998000      -3.09386000      -1.01257000
H        0.33881800      -2.44188300      -1.76773600
H       -1.15127800      -1.51078700      -1.77841800
H        0.45134800      -2.25177600       0.72906300
H       -1.03631300      -1.32792700       0.73669300
H        1.52274600      -0.45365500      -0.73105000
H        2.15438900       0.32803900       1.37047300
H        1.43121000       2.42384500       0.60427900
H       -0.03414200       2.15283400       1.58071100
H        0.28703600       1.52047300      -1.36422700
H       -1.85273100       0.78977800       0.53242500
H       -1.90808000       0.54391400      -1.09954000
