18
Properties=species:S:1:pos:R:3 pbc="F F F"
C        0.13496200       1.56608000       1.55787000
C        1.01737400       0.55705200       0.81243900
N       -0.14345100      -0.34415700       0.65645400
C       -1.06581400       0.70549200       1.14797400
C       -0.43313100      -0.99002300      -0.61823600
C       -0.23977800      -0.30528400      -1.94919200
C        0.67019300      -1.42601600      -1.52027900
H        0.14483600       2.58755700       1.16988900
H        0.31119200       1.60594700       2.63566000
H        1.85308600       0.11481500       1.38174600
H        1.42584200       0.94364700      -0.13675400
H       -1.73875700       0.37069500       1.95584100
H       -1.68755000       1.15894300       0.35679300
H       -1.29796000      -1.66084800      -0.54882800
H        0.17722800       0.69601400      -1.96446100
H       -0.95033000      -0.51031100      -2.74366600
H        1.68827300      -1.16234200      -1.25264000
H        0.57546500      -2.37881900      -2.03221700
