20
Properties=species:S:1:pos:R:3 pbc="F F F"
C        1.31941500      -2.43746300      -0.11040100
C        1.30967700      -0.92322200      -0.27317400
C       -0.09596300      -0.32100200      -0.12078100
C       -0.71823500      -0.25598100       1.28982700
C       -0.97662800       1.23123500       1.02484100
N       -0.14697000       1.16894700      -0.20199300
C       -0.68882900       1.76408500      -1.41911500
H        2.32489000      -2.83623200      -0.22788800
H        0.68104100      -2.91520400      -0.85154700
H        0.95801500      -2.72801900       0.87426600
H        1.70568400      -0.65795800      -1.25941600
H        1.98354100      -0.47048100       0.46113900
H       -0.78515700      -0.79916400      -0.84828700
H       -0.00869700      -0.44717700       2.09896000
H       -1.60406900      -0.87474000       1.45393200
H       -0.60578700       1.94379900       1.78029600
H       -2.03718500       1.46702000       0.82988000
H       -0.76404600       2.84894200      -1.30106700
H       -1.69345300       1.38228800      -1.68159900
H       -0.02260700       1.55838300      -2.26188700
