19
Properties=species:S:1:pos:R:3 pbc="F F F"
C        0.17765000       0.29054200       2.87181100
C       -0.01305400       0.51000200       1.38439800
C        1.03482000       1.17675300       0.54894500
N        0.82911900      -0.27011300       0.47336500
C        0.23393300      -0.88448700      -0.73120200
C       -0.70262000      -0.01767900      -1.59153300
N       -1.30297900      -0.84006400      -2.64658200
H       -0.18337400       1.14610300       3.44259800
H        1.22757400       0.14244600       3.11235100
H       -0.37177700      -0.58702100       3.21175000
H       -1.05589600       0.67007900       1.07825200
H        1.97764300       1.48486800       1.00710100
H        0.72143300       1.79514200      -0.29506700
H       -0.31032200      -1.78383900      -0.40800100
H        1.05955400      -1.24546300      -1.36728400
H       -0.14561500       0.84357400      -2.01612200
H       -1.51211600       0.40703500      -0.98055300
H       -0.58234300      -1.27808900      -3.21500600
H       -1.89211200      -0.27438900      -3.25201800
