18
Properties=species:S:1:pos:R:3 pbc="F F F"
C        1.20637500       1.20786400      -0.56288900
C        0.61241400      -0.19909200      -0.40692800
C       -0.94476900      -0.22788200      -0.26122900
C       -1.63537300       0.27953800      -1.53215200
C       -1.42923200       0.53128300       0.97869700
C        1.23893400      -0.89627500       0.72996800
N        1.72862200      -1.45322700       1.61002600
H        2.28559500       1.15312500      -0.68630500
H        0.99960500       1.82398100       0.30860200
H        0.79222800       1.70462600      -1.43698300
H        0.86824000      -0.77936000      -1.31050900
H       -1.22111400      -1.28640700      -0.13350900
H       -1.43421600       1.33504500      -1.70176500
H       -2.71301200       0.15831900      -1.45019700
H       -1.29935700      -0.27303100      -2.40741300
H       -1.25081700       1.60049900       0.88534200
H       -0.91946500       0.17839300       1.87212800
H       -2.49813400       0.38479100       1.11762400
