18
Properties=species:S:1:pos:R:3 pbc="F F F"
C       -1.57152300      -0.80263600       0.01918300
C       -0.07425500      -0.63225300       0.04504300
C        0.52271800       0.54786500       0.33071200
C       -0.18310900       1.84437700       0.66031000
N       -1.05231900       2.30241700      -0.43301900
C        0.69713500      -1.85458400      -0.25616700
C        2.03088600      -1.97319700      -0.32288500
H       -2.08989100       0.12416200       0.24132400
H       -1.88339000      -1.55728200       0.74331400
H       -1.90197400      -1.15073200      -0.96028800
H        1.61174500       0.58345200       0.34354700
H        0.58093900       2.60731500       0.91648300
H       -0.80180500       1.72453800       1.56618300
H       -0.53009000       2.35665000      -1.30327400
H       -1.43236900       3.22183000      -0.22322600
H        0.09484600      -2.74415600      -0.44472600
H        2.69565700      -1.13433300      -0.15190900
H        2.49145300      -2.92579400      -0.55346900
