12
Properties=species:S:1:pos:R:3 pbc="F F F"
C       -2.41057000       0.16940600      -1.24750700
C       -1.20368400       0.16311700      -1.21352800
C        0.26030500       0.16738600      -1.18364700
C        0.81451800       0.27569200       0.22764600
C        1.61853900       1.27695100       0.61895200
C        0.44857100      -0.77955500       1.14536100
N        0.16272800      -1.63402700       1.86580900
H       -3.47300900       0.16629300      -1.26583200
H        0.63748500       0.99947500      -1.79059800
H        0.62816400      -0.75900500      -1.64882700
H        1.89391500       2.06908300      -0.06728900
H        2.00826700       1.32436700       1.62822900
