20
Properties=species:S:1:pos:R:3 pbc="F F F"
C        0.29361500       1.24280900       2.29945900
C       -0.60009400       0.92271400       1.10526300
C        0.09343700       0.08445500       0.01901200
C        1.21072000       0.79949300      -0.73024300
C        0.16637200      -1.40442400       0.20363200
N       -0.82206000      -0.81793300      -0.70947600
C       -0.63287800      -1.03709700      -2.14359200
H       -0.25482800       1.80978600       3.04884200
H        1.15764100       1.83442100       2.00304600
H        0.65996100       0.33308300       2.77138700
H       -0.96138000       1.85945200       0.66492200
H       -1.48571800       0.38287700       1.45282500
H        1.93417700       1.21750600      -0.03128700
H        0.81729800       1.62429700      -1.32458400
H        1.74692900       0.12839800      -1.39647100
H       -0.24471600      -1.86971700       1.10250500
H        1.00125200      -1.94477000      -0.25048200
H       -1.21828600      -1.90768800      -2.45835100
H        0.41355400      -1.21892800      -2.43447500
H       -0.99849500      -0.17089400      -2.70273100
