18
Properties=species:S:1:pos:R:3 pbc="F F F"
C        0.89151100       0.69861600       3.02321500
C        0.62463900       0.55569700       1.55842500
C       -0.55326900       0.17107800       1.04364300
C       -0.85688600       0.01117700      -0.40761900
N       -0.14143300       0.81664600      -1.41531800
C        0.13211300      -0.61714000      -1.35443700
C       -0.32098500      -1.47063600      -2.51946200
H        1.69645100       0.03268400       3.34007500
H        0.00769400       0.46851200       3.61367000
H        1.20955100       1.71426600       3.26555100
H        1.45768000       0.78474700       0.89219800
H       -1.37377000      -0.05545200       1.72493600
H       -1.91878600      -0.12856600      -0.63670600
H        0.61177500       1.34891800      -0.97137200
H        1.10155000      -0.90031400      -0.92289500
H       -1.29590500      -1.15176200      -2.87987200
H       -0.39061200      -2.51921900      -2.23091300
H        0.38165400      -1.40309100      -3.35003100
