19
Properties=species:S:1:pos:R:3 pbc="F F F"
C        1.02507000       0.51174600       1.47267500
C        0.57572000       0.50532000       0.01688100
C       -0.94349300       0.58697400      -0.21582800
C       -1.65496800      -0.76874600      -0.35905600
N       -1.57973000      -1.57644500       0.85949200
C        1.42813600      -0.17975900      -1.00572000
N        1.44137800       1.28118800      -0.89065500
H        2.10911600       0.46331500       1.54041900
H        0.61073400      -0.32955100       2.02626300
H        0.69803900       1.42321800       1.97212700
H       -1.40113000       1.14602200       0.60649200
H       -1.13693400       1.16474100      -1.12700500
H       -1.24015800      -1.30906600      -1.23736800
H       -2.71549200      -0.58838800      -0.58609600
H       -0.61737000      -1.83465200       1.06122200
H       -2.12428100      -2.42845500       0.75395100
H        0.95447700      -0.60235000      -1.89454400
H        2.35323100      -0.67505600      -0.70564400
H        0.89543900       1.70381600      -1.64538800
