19
Properties=species:S:1:pos:R:3 pbc="F F F"
N       -0.29043300      -2.45121800       0.84312700
C       -0.75876900      -1.06946500       0.99095400
C       -0.51431800      -0.27200200      -0.28298600
C       -0.41331700       1.22065000      -0.25408400
C        0.81695400       0.39651800      -0.57882400
C        1.98830100       0.32410900       0.37842100
N       -1.08889000       2.00408700      -1.28123000
H       -0.41936000      -2.97008200       1.70774800
H        0.69557700      -2.46735400       0.59620100
H       -0.28213100      -0.55867300       1.85432000
H       -1.83852100      -1.08942700       1.20964000
H       -1.00718200      -0.69318900      -1.16126400
H       -0.43557300       1.69712400       0.73141900
H        1.10600500       0.37796500      -1.63135700
H        1.66692300       0.43577500       1.41178100
H        2.70839300       1.11516400       0.16821300
H        2.51562600      -0.62701000       0.29322600
H       -1.20376700       1.46252800      -2.13366800
H       -0.56383200       2.84823700      -1.50042500
