18
Properties=species:S:1:pos:R:3 pbc="F F F"
C       -0.88251500       0.84958500       2.02215200
C       -1.19887800       1.01840400       0.55148900
C       -0.27588100       1.78701200      -0.35012800
C       -0.43253800       0.30274500      -0.53092800
C        0.71883900      -0.62880000      -0.22658600
C        1.44708400      -1.32915300      -1.32506600
N        0.50708700      -2.05893300      -0.47325100
H       -1.27796200       1.68526000       2.59929700
H        0.18962400       0.80378900       2.19922300
H       -1.32850500      -0.06274200       2.41736700
H       -2.26328700       1.15058600       0.34751700
H        0.65648400       2.14646900       0.07418700
H       -0.71264900       2.44576700      -1.09467100
H       -1.02347400      -0.00751100      -1.39396500
H        1.30805100      -0.37631700       0.66433000
H        2.50952600      -1.54963100      -1.20022700
H        1.12817400      -1.19571100      -2.35983800
H        1.00773400      -2.62618200       0.21394300
