15
Properties=species:S:1:pos:R:3 pbc="F F F"
C       -2.37436000      -0.39632500      -0.38812200
C       -0.94366300      -0.15186000      -0.01752400
N       -0.16386000      -1.09792300       0.39640200
N        1.16243600      -0.54305600       0.70997600
C        1.13454100       0.87803100       0.27527400
C       -0.28822600       1.21631000      -0.11615200
C        1.85650300      -0.15209200      -0.53234000
H       -2.63763400      -1.44256400      -0.25813900
H       -2.56214700      -0.12008600      -1.42699900
H       -3.04582200       0.20545700       0.22679800
H        1.71088200       1.57589100       0.88783300
H       -0.38990200       1.64520100      -1.12198400
H       -0.73980600       1.93902900       0.57567000
H        2.94578200      -0.19647500      -0.48075100
H        1.41984600      -0.48398400      -1.47389600
