14
Properties=species:S:1:pos:R:3 pbc="F F F"
C       -1.56714000       0.96775900       0.39040900
C       -0.17025300       0.57263100       0.78604000
C        0.39762800       1.06004800       1.90453200
C        0.53654300      -0.37101600      -0.12297500
C        1.74068400      -0.92783200       0.12494400
C       -0.14146200      -0.71383500      -1.35770700
N       -0.67620000      -0.99112800      -2.34161900
H       -2.00766800       1.64113700       1.12100700
H       -2.20773600       0.09026600       0.29935600
H       -1.56864300       1.46492700      -0.57991500
H       -0.14421100       1.74354400       2.54580300
H        1.40467700       0.79356800       2.20089800
H        2.28596900      -0.71244300       1.03565200
H        2.19500500      -1.60963900      -0.58293400
