15
Properties=species:S:1:pos:R:3 pbc="F F F"
C       -2.62322300       0.03290500      -0.25958000
C       -1.12240900      -0.02748100      -0.52923800
C       -0.30600600      -1.12361900       0.18810300
C        0.60299100       0.00801000       0.71644300
N       -0.32397700       1.02904800       0.16002800
C        1.95384100       0.05410200       0.13636900
N        3.00618200       0.10987800      -0.32745600
H       -3.13004400      -0.81671900      -0.71282300
H       -3.05070800       0.94278900      -0.67557400
H       -2.83028800       0.02244500       0.80808000
H       -0.94135200      -0.02837600      -1.62122700
H        0.17691700      -1.86020500      -0.45683300
H       -0.84830600      -1.64966400       0.97693700
H        0.69211900       0.06293700       1.81938600
H        0.12507000       1.69081700      -0.47853100
