20
Properties=species:S:1:pos:R:3 pbc="F F F"
C       -2.85033600       1.88510100       0.61775900
C       -1.35150600       1.66218900       0.77371800
C       -0.83881300       0.48552700      -0.06513700
C        0.67104800       0.26684400       0.08927400
C        1.18858300      -0.87075500      -0.78093500
C        1.26623400      -2.27134200      -0.27759700
N        2.47846400      -1.46271900      -0.41704000
H       -3.18216700       2.72753900       1.22089200
H       -3.41184900       1.00689300       0.93029200
H       -3.10894600       2.09225200      -0.41877400
H       -1.11537800       1.48753900       1.82872100
H       -0.81503500       2.57338100       0.48812300
H       -1.07822900       0.65937200      -1.12038900
H       -1.37351700      -0.42696000       0.22093700
H        0.91073700       0.05969000       1.13646900
H        1.19976700       1.19236900      -0.17005100
H        1.00514900      -0.74830000      -1.85739600
H        1.13185500      -3.09595200      -0.98102100
H        0.97445400      -2.49608200       0.74919500
H        3.00265300      -1.73808700      -1.25020700
