16
Properties=species:S:1:pos:R:3 pbc="F F F"
C       -1.26217100       0.84814100      -2.29946900
C       -0.95072700      -0.23647000      -1.57264300
C       -0.21279800      -0.21722400      -0.31449600
C        0.10863200      -1.29864100       0.42662400
C        0.87316700      -0.90666300       1.65171800
N        0.89756700       0.56611300       1.61465100
C        0.31353500       1.03319400       0.34502800
H       -1.81428900       0.75919600      -3.22663400
H       -0.97728300       1.84533300      -1.98515000
H       -1.26185300      -1.21911800      -1.92951700
H       -0.14490000      -2.32610500       0.18215100
H        1.89543700      -1.33560800       1.65627800
H        0.39456600      -1.28379700       2.57915900
H        1.83190700       0.94192800       1.77195700
H        1.06447200       1.54357300      -0.28827100
H       -0.48885000       1.77779200       0.51689000
