22
Properties=species:S:1:pos:R:3 pbc="F F F"
N        0.46386000       1.81911900      -0.98303200
C       -0.30920900       0.63121500      -1.35332500
C        0.10634500      -0.64960000      -0.59181800
C       -0.32906600      -0.69794100       0.90847300
C       -1.85657900      -0.76660400       1.04784800
C        0.24089100       0.44033300       1.76217100
C        1.60377500      -0.94463300      -0.75219200
H        0.14918100       2.62464600      -1.51732700
H        1.45284800       1.67640900      -1.16889000
H       -0.22346200       0.42035000      -2.44221800
H       -1.37295700       0.83915300      -1.16993700
H       -0.43376200      -1.47595600      -1.08599100
H        0.07358100      -1.64363600       1.31036100
H       -2.33157400       0.15066600       0.70563300
H       -2.13846300      -0.91342400       2.08871900
H       -2.26577300      -1.59318600       0.46906700
H       -0.13933000       1.40467700       1.43675900
H        1.32674400       0.46878800       1.70579400
H       -0.03614700       0.30303500       2.80632700
H        2.21843900      -0.19838700      -0.25353600
H        1.88375500      -0.95873100      -1.80449400
H        1.85296400      -1.91485400      -0.32598400
