14
Properties=species:S:1:pos:R:3 pbc="F F F"
C       -2.09982200      -1.06068800      -1.87761100
C       -0.63912500      -1.19739100      -1.57897800
C        0.02983000      -0.53495100      -0.61026000
C       -0.57013500       0.42171900       0.30211900
C        0.10841800       1.07888500       1.27339400
C        1.50890600       0.90988700       1.52133000
N        2.63665000       0.79718600       1.75029200
H       -2.37574700      -1.66113500      -2.74010400
H       -2.37238700      -0.02597700      -2.08873900
H       -2.71265800      -1.38637000      -1.03528900
H       -0.08046200      -1.89548200      -2.20030000
H        1.09592800      -0.71947500      -0.48966900
H       -1.63576100       0.61947500       0.19585100
H       -0.40389500       1.78389900       1.92624200
