20
Properties=species:S:1:pos:R:3 pbc="F F F"
N        0.53522700       1.13540700      -2.29244700
C       -0.22460900       1.15159000      -1.03712100
C        0.31866300       0.15733300      -0.02315800
C       -0.48751500      -0.53453600       0.81777400
C        0.06432100      -1.48670800       1.85218400
C       -1.99592800      -0.42168400       0.79526900
C        1.82432100       0.02230100       0.03511000
H        0.15424200       1.81305100      -2.94745400
H        0.49839400       0.21395300      -2.72047800
H       -1.30400400       0.97103100      -1.21576200
H       -0.16022900       2.17058300      -0.61601500
H        1.09277200      -1.25552300       2.11866900
H        0.04231900      -2.51667300       1.48768900
H       -0.53515700      -1.46008300       2.76110900
H       -2.39818800      -0.44243700      -0.21759200
H       -2.33606500       0.50862400       1.25616700
H       -2.45015300      -1.24001700       1.34935400
H        2.29390600       0.66841300      -0.70097400
H        2.14551500      -1.00084200      -0.16622800
H        2.21454000       0.29229700       1.01830000
