19
Properties=species:S:1:pos:R:3 pbc="F F F"
C        2.25388200      -0.13854200      -1.25228700
C        1.50113900      -0.52106100       0.01359900
C        0.02891400      -0.08172300       0.05352800
C       -0.64321000      -0.40011300       1.41197600
N       -2.03025000       0.04325600       1.56300700
C       -0.79773600      -0.05508100      -1.19283500
N       -0.29839800       1.19234000      -0.60499600
H        3.30723300      -0.39597600      -1.15996200
H        2.17839600       0.92997100      -1.43666400
H        1.86022900      -0.65811500      -2.12350200
H        2.01462100      -0.08393300       0.87941800
H        1.54990600      -1.60805300       0.15868100
H       -0.60447100      -1.48728200       1.58100500
H       -0.04724600       0.05481700       2.21717100
H       -2.63294800      -0.38351800       0.86458800
H       -2.10445300       1.05422200       1.48750400
H       -1.87188000      -0.24273400      -1.12059700
H       -0.35806600      -0.32429100      -2.15353800
H       -1.04872700       1.67483100      -0.10405800
