12
Properties=species:S:1:pos:R:3 pbc="F F F"
C       -2.32458400      -1.15934800      -1.46231000
C       -1.12005700      -1.10573600      -1.39531200
C        0.34108600      -1.05916700      -1.33922500
C        0.90596500      -0.19820800      -0.24300000
C        0.17358200       0.50760300       0.63451200
C        0.76002300       1.31829500       1.66336500
N        1.20468800       1.97862100       2.50000800
H       -3.38463800      -1.20674800      -1.52069800
H        0.72754200      -0.70644700      -2.30811300
H        0.72990600      -2.08331200      -1.22946900
H        1.99335600      -0.16579300      -0.18541000
H       -0.91507700       0.49132100       0.59545700
