20
Properties=species:S:1:pos:R:3 pbc="F F F"
C       -2.02519100      -0.29370300       2.26082800
C       -0.64460800      -0.48391200       1.64032600
C       -0.57332300      -0.00766800       0.19443600
C       -0.37039700       1.45353900      -0.10747600
C        0.72764700       0.47108300      -0.38629300
N        1.03594800       0.16442900      -1.77737200
C        1.79188200      -1.07377800      -1.95304200
H       -2.03702000      -0.63636400       3.29363900
H       -2.78109300      -0.85282900       1.71307400
H       -2.31554600       0.75470200       2.25056000
H       -0.37067000      -1.54518900       1.68980900
H        0.10012000       0.05360500       2.23742800
H       -1.23654000      -0.53595900      -0.49133700
H       -0.24540400       2.13345600       0.72974300
H       -0.90288800       1.87310200      -0.95460000
H        1.59073700       0.49684000       0.30443500
H        1.54335200       0.94317500      -2.20642300
H        1.21103700      -1.92504500      -1.58881900
H        2.75707900      -1.07457300      -1.41422100
H        1.99913800      -1.22928900      -3.01436100
