18
Properties=species:S:1:pos:R:3 pbc="F F F"
C       -1.22985700       0.85653400       2.12959500
C       -0.04775500       1.36013800       1.36647700
C        0.38283100       0.93025500       0.16568000
C       -0.21991300      -0.10773300      -0.69425400
C       -1.54766600      -0.28947700      -0.81829300
C        0.75611300      -0.91836100      -1.52963900
N        1.75802000      -1.58916000      -0.69669900
H       -1.01520600       0.84727900       3.19796500
H       -1.51157100      -0.14818800       1.82207000
H       -2.09816200       1.50455500       1.98620900
H        0.53216000       2.14034000       1.86091500
H        1.30727900       1.36518000      -0.21980300
H       -2.26126500       0.33492300      -0.29662000
H       -1.94430800      -1.05442600      -1.47581800
H        1.23450800      -0.23301700      -2.26645700
H        0.21447100      -1.67221500      -2.11827700
H        2.19602300      -0.93029600      -0.05785900
H        2.47740800      -2.01814500      -1.27283000
