18
Properties=species:S:1:pos:R:3 pbc="F F F"
C       -1.56890300      -1.16408300       1.76855100
C       -0.41047000      -1.47664800       1.17421600
C        0.30178400      -0.65545000       0.16699500
C        0.35922000       0.87232000       0.29523500
C       -0.45321500       0.25908200      -0.79292900
C       -0.04353300       0.32532300      -2.24830700
N        1.57499400       1.60449200       0.00502900
H       -2.01031200      -1.82309800       2.50441300
H       -2.10498900      -0.25229600       1.53373200
H        0.08376500      -2.40839600       1.45155500
H        1.19698800      -1.11734400      -0.24931400
H       -0.19821500       1.28973200       1.13958800
H       -1.53374900       0.28366200      -0.63718400
H        1.02744900       0.17556700      -2.37189600
H       -0.29846900       1.29125400      -2.68435500
H       -0.55366000      -0.44333400      -2.82778100
H        2.01648100       1.27470800      -0.84842500
H        2.24046400       1.53484100       0.77189400
