17
Properties=species:S:1:pos:R:3 pbc="F F F"
C       -2.44612900       0.77252600       0.70429000
C       -0.93931300       0.65160500       0.74726800
C       -0.07524100       1.60617700      -0.00239000
C       -0.18360500       0.17698600      -0.47692700
C        0.98250400      -0.73578800      -0.29348900
N        1.77214700      -0.63082400       0.73504800
N        1.18609500      -1.67711800      -1.30647500
H       -2.80162200       1.47736100       1.45570400
H       -2.92435000      -0.18659100       0.90291500
H       -2.78569900       1.12150600      -0.26878200
H       -0.53217900       0.29445600       1.69319600
H        0.86879700       1.89361400       0.44785400
H       -0.55287200       2.36807900      -0.61136100
H       -0.77260900       0.01115400      -1.38035800
H        2.52893400      -1.31894300       0.71998100
H        1.82154500      -2.44042000      -1.10979700
H        0.41306300      -1.89366200      -1.92187500
