18
Properties=species:S:1:pos:R:3 pbc="F F F"
C        2.30278100      -0.82087300       2.07248900
C        1.29902000      -0.37678600       1.05570100
C        0.12929400       0.19767500       1.36227400
C       -0.91314600       0.66410500       0.37845900
C       -0.51728900       0.56149100      -1.08696500
C       -0.86638300      -0.63977300      -1.89643500
N       -1.57246900       0.62608600      -2.10335700
H        3.26046600      -0.32112200       1.91733100
H        2.49014400      -1.89312000       1.99254900
H        1.96731500      -0.60775700       3.08489700
H        1.56543900      -0.54436600       0.01256800
H       -0.12091300       0.35419700       2.41244800
H       -1.16796800       1.70847200       0.61295000
H       -1.84160600       0.09952100       0.54738000
H        0.39024300       1.11206900      -1.36142000
H       -1.42452400      -1.44938300      -1.42200200
H       -0.21934400      -0.95149500      -2.71804800
H       -2.49762300       0.59535500      -1.66829400
