13
Properties=species:S:1:pos:R:3 pbc="F F F"
C       -0.21485700       2.57026000       0.70214600
C       -0.11637000       1.44140200      -0.00335700
C        0.86071700       0.36485200       0.30689300
N        1.32435600      -0.47992300      -0.79865800
C        0.46920200      -1.09506900       0.21509500
C       -0.87188600      -1.49239700      -0.18259000
N       -1.94225800      -1.82705600      -0.44519000
H       -0.94558500       3.32792100       0.45016900
H        0.43566700       2.76702500       1.54716200
H       -0.77732900       1.26198100      -0.84945800
H        1.60365000       0.60323600       1.07875100
H        2.30057000      -0.75583300      -0.66579700
H        0.94750300      -1.78977400       0.91698400
