19
Properties=species:S:1:pos:R:3 pbc="F F F"
C       -1.94228400      -0.93843000      -0.36060400
C       -0.42937500      -0.74691500      -0.45147000
N        0.37695200      -1.86189700       0.11737000
C        1.19349200      -0.91680200       0.90629400
C        0.24399800       0.24066800       0.53999500
C        0.87730100       1.51685600      -0.04791700
N       -0.11033400       2.47879000      -0.55358400
H       -2.26725800      -1.75788900      -0.99941900
H       -2.46661600      -0.03766800      -0.67593300
H       -2.24764200      -1.16795800       0.65781200
H       -0.14853800      -0.52940300      -1.50297500
H        0.90601900      -2.39186900      -0.57883300
H        2.21992700      -0.79190100       0.52118900
H        1.26522700      -1.17515600       1.97543800
H       -0.42383000       0.50730800       1.37170100
H        1.48734500       2.01344800       0.72046000
H        1.55864400       1.25078100      -0.86882900
H       -0.72939800       2.77892300       0.19563500
H       -0.67899000       2.05086900      -1.28053800
