20
Properties=species:S:1:pos:R:3 pbc="F F F"
C        1.24158300       2.12262600      -0.34711700
C        1.50879700       0.64917000      -0.05828700
C        0.24316600      -0.14615000       0.29211400
C       -0.41549600       0.23938700       1.60941800
N        0.31598400      -1.58482700      -0.04107800
C       -0.57203000      -0.71463300      -0.83520100
C       -2.07143400      -0.91859900      -0.76769300
H        2.16481400       2.63859300      -0.60200900
H        0.80828400       2.62513200       0.51543800
H        0.55235500       2.24025900      -1.18119600
H        2.22681900       0.56769200       0.76607000
H        1.98463400       0.18935700      -0.92914900
H       -1.21449000      -0.44844000       1.87686600
H       -0.83843200       1.24262400       1.56161400
H        0.31415900       0.23124300       2.41887500
H       -0.23557700      -2.12988600       0.62688700
H       -0.19659400      -0.53411100      -1.85015700
H       -2.40079300      -1.19086500       0.23260600
H       -2.38073200      -1.71433100      -1.44518600
H       -2.60384300      -0.01428100      -1.06251700
