12
Properties=species:S:1:pos:R:3 pbc="F F F"
N       -3.69731600      -0.02445500      -0.00108900
C       -2.53801300       0.00460900       0.00019900
C       -1.14705400       0.03616000       0.00159800
C        0.07246800       0.08867100       0.00392700
C        1.51067500       0.09804400       0.00435800
C        2.19253200       1.25977300       0.05603000
C        2.20300400      -1.24445900      -0.05532700
H        1.67953500       2.21169800       0.09834900
H        3.27529300       1.26668100       0.05635500
H        1.48596600      -2.05910500      -0.09157000
H        2.83934900      -1.39143000       0.81677900
H        2.83939100      -1.31343900      -0.93700400
