14
Properties=species:S:1:pos:R:3 pbc="F F F"
C       -2.36351100      -0.13625600       0.34744900
C       -0.87886600       0.01441600       0.15022400
C       -0.12264600      -1.09579500      -0.06072800
C        1.29791200      -1.14356900      -0.22432800
N        2.43986400      -1.27582800      -0.35716800
C       -0.37349900       1.39438400       0.22896600
C        0.81471000       1.84725200      -0.19438500
H       -2.67815700      -1.17379200       0.26608000
H       -2.91472600       0.44720400      -0.39103400
H       -2.66173300       0.23603300       1.32857200
H       -0.61082500      -2.07002200      -0.09441100
H       -1.07730300       2.11064600       0.65479500
H        1.55123000       1.20237100      -0.65655600
H        1.06786200       2.89576000      -0.09045900
