18
Properties=species:S:1:pos:R:3 pbc="F F F"
C        1.17073800       0.86750000       1.84504900
C        0.07712900       1.28464300       1.19385000
C       -0.65867700       0.55727600       0.13417100
C        0.03910900       0.04153600      -1.13837700
C       -0.45903600      -0.92990400      -0.12431500
C       -1.66269000      -1.80301200      -0.40958700
N        1.46060300       0.20741100      -1.35141200
H        1.63957400       1.49130800       2.59505600
H        1.60907600      -0.10813400       1.67178500
H       -0.32395500       2.26979600       1.43644200
H       -1.67176600       0.92543400      -0.03386900
H       -0.54397100       0.14635700      -2.05881400
H        0.30435800      -1.40375100       0.49440200
H       -2.38857800      -1.28073400      -1.03013900
H       -2.16258600      -2.09961900       0.51211900
H       -1.37021100      -2.71337700      -0.93269600
H        1.97579400       0.07731800      -0.48402900
H        1.66860500       1.13529200      -1.71512300
