22
Properties=species:S:1:pos:R:3 pbc="F F F"
C        0.82346400       1.66301200       1.21217200
C        0.18294200       1.46974900      -0.16806600
C        0.49452700       0.08106500      -0.78624700
C        0.23902600      -1.18455900       0.08714300
N       -1.18761300      -1.45687300       0.34320900
C        0.87195700      -2.41343200      -0.58286300
C       -1.31467700       1.80746000      -0.13603900
H        1.88723200       1.43608500       1.18260500
H        0.36248500       1.02220700       1.96083200
H        0.70841900       2.69283600       1.54421100
H        0.65152900       2.20326400      -0.84604100
H        1.55450800       0.07704600      -1.06358600
H       -0.06255900      -0.01629400      -1.72460100
H        0.72577700      -1.04096000       1.06801700
H       -1.69782200      -1.53383600      -0.53317100
H       -1.60286000      -0.71234800       0.89534300
H        0.42660100      -2.59794800      -1.55891200
H        0.72032300      -3.30207000       0.02506800
H        1.94186900      -2.27555200      -0.72393900
H       -1.84872200       1.23155000       0.61611500
H       -1.77864600       1.61418000      -1.10102700
H       -1.45827200       2.86018500       0.10002500
