19
Properties=species:S:1:pos:R:3 pbc="F F F"
C       -0.48380100      -0.47405000      -1.99901400
C       -0.64144600      -0.60857800      -0.48643600
N        0.23973600      -1.64066500       0.13615000
C        1.04515800      -0.61752400       0.83858100
C        0.02387000       0.48662000       0.41299200
C       -0.87517300       0.97486500       1.55486300
N        0.57263200       1.64989400      -0.30607600
H       -0.88485200      -1.35295300      -2.50222000
H        0.56168700      -0.37584400      -2.28720900
H       -1.01863300       0.39833300      -2.36877800
H       -1.70994300      -0.78622300      -0.25189400
H        0.77302000      -2.18867700      -0.54262200
H        2.05201000      -0.48277200       0.41020500
H        1.15797600      -0.80730100       1.91814500
H       -1.30788300       0.13530300       2.09392900
H       -1.68820200       1.58859000       1.17120100
H       -0.30931400       1.57680100       2.26568800
H        1.26979900       1.36219400      -0.98833600
H        1.00610900       2.29994200       0.34545500
