19
Properties=species:S:1:pos:R:3 pbc="F F F"
N        0.45014000       0.85901000       2.14780900
C       -0.38847600       1.37020300       1.05940500
C        0.04973200       0.86243500      -0.31973600
N        1.22437400      -0.01436500      -0.45195400
C       -0.10923800      -0.56853900      -0.75607300
C       -0.68389300      -1.59416600       0.20980200
C       -0.37531500      -0.85943900      -2.22763900
H        0.06888300       1.13854900       3.04806400
H        1.39422000       1.23059800       2.07108100
H       -0.39216600       2.48038500       1.03945100
H       -1.42965200       1.07332600       1.26049500
H       -0.00906800       1.62244300      -1.10906100
H        1.51900800      -0.32589100       0.47806500
H       -0.41648100      -1.36033200       1.23718700
H       -0.30937000      -2.59177200      -0.01906500
H       -1.77128100      -1.63222500       0.13949000
H        0.08181300      -0.10386800      -2.86155800
H       -1.44521900      -0.87755600      -2.43571100
H        0.03084700      -1.82913300      -2.51397100
