20
Properties=species:S:1:pos:R:3 pbc="F F F"
C       -1.18706400       1.89430800       0.82007700
C       -1.52081100       1.33859900      -0.55889100
C       -0.99029800      -0.08186700      -0.79871000
C        0.53167700      -0.15897700      -0.83225500
N        1.14237400      -1.49336800      -0.89138800
C        1.38438200      -0.66058900       0.29367700
C        0.83944000      -1.14367000       1.62114300
H       -1.60113300       2.89297200       0.94339700
H       -0.11124900       1.95724400       0.96950600
H       -1.59664500       1.26218700       1.60528700
H       -1.12027900       2.01039500      -1.32652600
H       -2.60803000       1.33734100      -0.69116400
H       -1.38159000      -0.44013700      -1.75899700
H       -1.38425400      -0.75998400      -0.03631600
H        1.00032000       0.59474600      -1.48182600
H        1.95623800      -1.49672000      -1.50985600
H        2.39049300      -0.22218700       0.35895500
H       -0.12384600      -1.63164000       1.50017600
H        0.71866700      -0.31578800       2.31961100
H        1.52073700      -1.86167700       2.07722500
