16
Properties=species:S:1:pos:R:3 pbc="F F F"
C       -2.48891000      -0.02965700       0.12088400
C       -0.99382500      -0.06371200       0.16927500
C       -0.21743000      -1.16336000       0.20689300
C        1.23271300      -0.78936700       0.19522300
C        1.27282000       0.70445700       0.16630800
C       -0.16715800       1.21031400       0.16434200
N        1.63822500      -0.06296400      -1.03478900
H       -2.90817500      -1.03322200       0.12534100
H       -2.84026300       0.48117600      -0.77725500
H       -2.89819100       0.51484800       0.97425600
H       -0.58487100      -2.18513100       0.22464100
H        1.98893700      -1.40442200       0.69236700
H        2.06124300       1.28495000       0.65675300
H       -0.39117000       1.82947600      -0.71242900
H       -0.38230900       1.83253500       1.04410800
H        2.65796700      -0.09152000      -1.12180300
