20
Properties=species:S:1:pos:R:3 pbc="F F F"
C        0.17006500       1.34091100       2.30146500
C       -0.59290200       0.04045400       2.08298500
C       -0.21450100      -0.68463300       0.78291700
C       -0.59932600       0.09088700      -0.47237900
C        0.41924300       0.93582500      -1.20335500
C       -0.13272100      -0.32303300      -1.83224100
N        0.69534700      -1.50717600      -2.01061500
H       -0.12586900       1.80939600       3.23804400
H       -0.02160700       2.04746400       1.49743500
H        1.24292000       1.16282200       2.34011700
H       -1.66887800       0.24633300       2.08294700
H       -0.40912800      -0.63177000       2.92844900
H       -0.71351900      -1.66192500       0.77215100
H        0.86173500      -0.88808500       0.78096500
H       -1.60627500       0.51242600      -0.43386000
H        1.43924100       0.91159200      -0.83447200
H        0.10075100       1.89854800      -1.59193000
H       -0.84243800      -0.18325700      -2.65422600
H        1.27021500      -1.67563600      -1.18988300
H        1.30628500      -1.40013700      -2.81779000
