20
Properties=species:S:1:pos:R:3 pbc="F F F"
C       -2.69326900       1.09064800      -0.51461300
C       -1.17182300       1.12885200      -0.44274900
C       -0.52482600      -0.12237400      -1.04937300
C        1.00924800      -0.09664400      -1.00795500
C        1.64978800      -0.42249300       0.33982400
C        1.21066300      -1.55425500       1.20541000
N        0.91909800      -0.17085500       1.58315800
H       -3.12506400       1.99432600      -0.08908100
H       -3.08968600       0.23942300       0.03555000
H       -3.03714100       1.00876100      -1.54432000
H       -0.85629100       1.23100200       0.59893300
H       -0.80443300       2.01724100      -0.96910900
H       -0.84343700      -0.21737400      -2.09407700
H       -0.89720900      -1.01396900      -0.53525800
H        1.36134300       0.88994400      -1.33436900
H        1.39898300      -0.80726400      -1.74935700
H        2.72486700      -0.19314000       0.37290800
H        1.96045900      -2.08724200       1.79466100
H        0.34289400      -2.15366600       0.92764900
H        1.55233800       0.14553400       2.32050700
