20
Properties=species:S:1:pos:R:3 pbc="F F F"
C       -2.22925400      -1.32465000      -1.12056100
C       -0.70715500      -1.22744400      -1.15913700
C       -0.13403600      -0.45792400       0.02592800
C        0.04758000       1.04507400      -0.03960700
C        1.25164600       0.15035300      -0.06350200
C        2.21265300       0.05108100       1.10258900
N       -0.22596600       1.89998800       1.10700000
H       -2.60491100      -1.87837900      -1.97866000
H       -2.68510100      -0.33667600      -1.13306500
H       -2.56582500      -1.83400900      -0.21964600
H       -0.39609800      -0.74217700      -2.09084200
H       -0.28306000      -2.23933800      -1.18494500
H       -0.40281200      -0.86065300       1.00370600
H       -0.21171700       1.52202100      -0.99113200
H        1.73804600       0.05715300      -1.03712600
H        1.68749500       0.02743700       2.05549000
H        2.90065500       0.89632800       1.11965300
H        2.80989400      -0.85786800       1.03446800
H        0.17494100       1.51310800       1.95653400
H       -1.22834700       2.01420100       1.24230100
