16
Properties=species:S:1:pos:R:3 pbc="F F F"
C       -2.42622500       0.96130500       0.09770600
C       -0.96754600       0.58397900       0.24023500
C        0.08941500       1.34196300      -0.50810400
C       -0.23943200      -0.06928300      -0.90256200
C        0.75484400      -1.20340500      -0.66678400
C        1.52508000      -1.06295800       0.56860700
N        2.14053600      -0.96701800       1.53627800
H       -2.68487700       1.77962600       0.76871500
H       -3.07497400       0.11978000       0.33958700
H       -2.65146800       1.27803200      -0.91831600
H       -0.68370700       0.24519200       1.23713100
H        1.03503200       1.52075800      -0.00685600
H       -0.22766500       2.13557500      -1.17716700
H       -0.80253400      -0.18557200      -1.82978900
H        0.22806300      -2.16719800      -0.63603800
H        1.46156000      -1.26666900      -1.50580300
