19
Properties=species:S:1:pos:R:3 pbc="F F F"
C        0.41565600      -2.59002600       0.56337300
C       -0.38953700      -1.44315400      -0.03396100
C        0.47910100      -0.20893600      -0.32521900
N        0.99018100       0.49337100       0.88723100
C        0.48339000       1.79861000       0.40892200
C       -0.21867600       1.11924300      -0.78089600
N       -1.68089900       1.19125100      -0.74961300
H       -0.22181600      -3.44676200       0.77395300
H        0.88782700      -2.28425800       1.49426700
H        1.20028700      -2.91478100      -0.11809300
H       -1.19719000      -1.17015900       0.65259100
H       -0.86766500      -1.77240100      -0.96411000
H        1.30142900      -0.49561800      -1.01224700
H        2.00627900       0.45402100       0.99159600
H        1.27843400       2.50809900       0.12737700
H       -0.17789500       2.30120400       1.13198300
H        0.12837700       1.47167100      -1.76830000
H       -2.03244600       0.93979700       0.17113600
H       -2.09019500       0.56241400      -1.43678800
