20
Properties=species:S:1:pos:R:3 pbc="F F F"
C       -2.06843900      -0.49124500       1.17419900
C       -0.56128600      -0.60367300       0.90328800
C       -0.13334200       0.34351500      -0.22610400
C       -0.35567200      -0.05864900      -1.66496300
C        1.04089100       0.02052400      -1.09044400
N        1.95403900       1.08335900      -1.48757600
C        0.25060100      -0.33947500       2.17920200
H       -2.63968600      -0.71138900       0.27481900
H       -2.33296000       0.51224700       1.50155600
H       -2.37730300      -1.18807200       1.95085700
H       -0.35285900      -1.63518400       0.57537600
H       -0.29108300       1.40175100      -0.00978800
H       -0.67245700       0.71266700      -2.35944400
H       -0.78060700      -1.03970500      -1.85384100
H        1.54819600      -0.93223700      -0.90950100
H        1.47810500       1.98137500      -1.50180200
H        2.33808000       0.90513000      -2.41340100
H        0.08510700       0.67197800       2.54508100
H        1.31587600      -0.45698900       1.99196700
H       -0.03319600      -1.03107000       2.97007900
