12
Properties=species:S:1:pos:R:3 pbc="F F F"
C       -2.95436400      -0.04949500      -0.01223500
C       -1.74222200       0.00320900      -0.00713500
C       -0.31488400       0.07839600      -0.00125900
C        0.53440800       1.18806800       0.00187200
C        1.85889800       0.69698500       0.00741000
C        1.79002300      -0.69222100       0.00754900
N        0.47108000      -1.04810100       0.00229600
H       -4.01602100      -0.08670000      -0.01665800
H        0.22570700       2.22335800       0.00029600
H        2.76477500       1.28517900       0.01092000
H        2.57613700      -1.43653100       0.01093800
H        0.12069000      -1.99824800       0.00121200
