19
Properties=species:S:1:pos:R:3 pbc="F F F"
N        0.40960400      -2.41744800      -0.59755800
C        0.93655400      -1.16265200      -0.05079000
C       -0.11535900      -0.44885300       0.78627700
C       -0.05819200       1.04492000       1.04200500
C       -1.14778400       0.48227300       0.17614700
C       -1.23201000       0.74927400      -1.31202400
N        0.98081500       1.89363400       0.47808500
H        1.09969700      -2.86939500      -1.19162100
H       -0.42841100      -2.24185800      -1.14543100
H        1.31277000      -0.48872300      -0.84933200
H        1.80958100      -1.39808100       0.58009300
H       -0.48798300      -1.05293900       1.61625200
H       -0.36366100       1.36836500       2.04465200
H       -2.13047200       0.43668100       0.65191800
H       -0.25955200       0.69396500      -1.79636000
H       -1.64386300       1.73982500      -1.50534700
H       -1.88389700       0.02311100      -1.79761200
H        1.05970400       1.76606200      -0.52642300
H        1.88389600       1.69990500       0.90583600
