20
Properties=species:S:1:pos:R:3 pbc="F F F"
C       -0.57160300       1.51951500       1.33540100
C       -1.04158200       1.14271400      -0.05292500
C       -0.34108300       1.68006400      -1.26863300
C       -0.27800300       0.21149800      -0.95557500
C        1.04281800      -0.44211600      -0.56787200
C        0.88085700      -1.88595200      -0.07605800
N        0.08270200      -1.95950300       1.14884000
H       -1.02716100       2.45749700       1.65329200
H        0.50787600       1.64794700       1.37271800
H       -0.84719600       0.75727600       2.06379200
H       -2.12809700       1.07121700      -0.13664000
H        0.55807100       2.26713500      -1.11033900
H       -0.94319400       2.00282500      -2.11303100
H       -0.90226800      -0.42157700      -1.59043600
H        1.71201700      -0.44938800      -1.43846300
H        1.54909300       0.15325300       0.19897600
H        1.89052400      -2.33124200       0.06304100
H        0.38674600      -2.48920700      -0.85261800
H        0.49377100      -1.38542500       1.88025000
H        0.02247500      -2.91812200       1.48155500
