19
Properties=species:S:1:pos:R:3 pbc="F F F"
C       -1.78654100      -0.15136600       1.67232100
C       -0.47390500      -0.83636800       1.31620100
C        0.18636800      -0.39447300      -0.00622000
N        1.47149100      -1.05194100      -0.26557300
C       -0.65396500      -0.11821600      -1.23637500
C        0.04691600       1.01397800      -0.54701400
N        1.16483600       1.65796600      -1.22616100
H       -2.17495000      -0.54682500       2.60873700
H       -2.54226200      -0.31291700       0.90648000
H       -1.65840200       0.92209900       1.79622900
H       -0.63851100      -1.92129600       1.27984400
H        0.24329600      -0.67655300       2.13176700
H        1.35469800      -2.06111200      -0.33478900
H        2.13214500      -0.86132600       0.48544100
H       -1.73415600      -0.18397600      -1.15060800
H       -0.25499200      -0.44814500      -2.18934800
H       -0.57743800       1.71933500       0.00806000
H        1.69198900       0.95853100      -1.74444400
H        1.79106300       2.08867700      -0.54871300
