17
Properties=species:S:1:pos:R:3 pbc="F F F"
C       -0.24897000       0.76039600       2.84312900
C       -0.48478400       0.74464700       1.34824800
C        0.49529700       1.40354600       0.41830900
C        0.38493100      -0.09382400       0.44796600
N       -0.22318900      -0.77283800      -0.67338600
C        0.28021900      -0.70253700      -1.95940700
N       -0.13109500      -1.42335100      -2.95535100
H       -0.60454700       1.69021200       3.28553700
H        0.80991700       0.66338700       3.07288500
H       -0.77536100      -0.05901900       3.33191000
H       -1.53189000       0.82153800       1.05349900
H        1.38434100       1.85216200       0.84962700
H        0.09925400       1.92233400      -0.44823800
H        1.21510700      -0.63296500       0.93309100
H       -0.87566500      -1.52638300      -0.46655000
H        1.06586000       0.05332500      -2.10989200
H       -0.86718100      -2.08463200      -2.69018200
