19
Properties=species:S:1:pos:R:3 pbc="F F F"
N       -0.31114800      -2.50107600       0.90176400
C       -0.72028500      -1.44243500      -0.02745400
C        0.39086200      -0.40815700      -0.16786700
C        0.31780000       0.92976800       0.50968100
N        0.19935700       0.82421800      -0.95321200
C       -1.11172400       1.08795600      -1.54622600
C        1.54612500       1.61782800       1.06840500
H       -1.04914300      -3.19226600       1.00699800
H       -0.09631300      -2.11534200       1.81775100
H       -1.66276900      -0.95385000       0.29653800
H       -0.93106600      -1.90343400      -1.00534200
H        1.38802000      -0.84666800      -0.30242600
H       -0.61809300       1.14695200       1.04492300
H       -1.15650200       2.12891100      -1.88330000
H       -1.95431300       0.92554500      -0.85504200
H       -1.26013800       0.44877800      -2.42176000
H        2.42933200       1.37215800       0.48374600
H        1.72878900       1.31617900       2.09987000
H        1.42806100       2.70128500       1.05895100
