18
Properties=species:S:1:pos:R:3 pbc="F F F"
C        0.82271100       0.63970000       1.90780900
C       -0.41046400       0.29203700       1.06736600
C       -0.55478900       1.18007200      -0.20526100
N       -0.39496000       0.32284600      -1.40173700
C       -0.25346900      -1.07144100      -0.95698200
C       -0.40540200      -1.17066500       0.55241600
C        0.92408400      -0.32707400      -1.48870500
H        0.77237700       1.66926100       2.25860000
H        1.74312600       0.52788100       1.33766500
H        0.89194600      -0.00644700       2.78157700
H       -1.29228800       0.44232800       1.70902600
H        0.17663700       1.99946800      -0.22455900
H       -1.55168200       1.64635600      -0.23691000
H       -0.73026000      -1.83343700      -1.58310100
H        0.39462500      -1.76257900       1.01054900
H       -1.34562300      -1.67364700       0.80323600
H        1.26729900      -0.52380800      -2.50619100
H        1.70254300      -0.00107500      -0.79759300
