18
Properties=species:S:1:pos:R:3 pbc="F F F"
C       -0.89534000      -0.04946100       2.46821600
C        0.41486500       0.27334200       1.78124100
N        0.44341200       1.40308100       0.84268800
C        0.66414500       0.04965100       0.32092000
C       -0.38368200      -0.52909700      -0.62912000
C       -0.14656800      -0.10717000      -2.05393700
C        0.01091200      -0.95148900      -3.07398200
H       -1.02094100       0.55930100       3.36301900
H       -0.92910400      -1.09495500       2.77454300
H       -1.74273200       0.14145300       1.81516900
H        1.29502900       0.18383800       2.43317100
H        1.32473100       1.91621300       0.91478000
H        1.70071700      -0.18225700       0.04126200
H       -1.37717500      -0.18631000      -0.31687300
H       -0.38618000      -1.62329100      -0.55911300
H       -0.10682100       0.96729100      -2.23308700
H       -0.02018200      -2.02543500      -2.92887800
H        0.17278500      -0.59207600      -4.08283500
