20
Properties=species:S:1:pos:R:3 pbc="F F F"
C       -2.96052000      -0.67368300      -1.00725100
C       -1.46561100      -0.96424500      -1.08291300
C       -0.68425300      -0.31208400       0.05189300
N       -0.24978100       1.07959300      -0.13576600
C        0.76741500       0.01939300      -0.08114300
C        1.70000500      -0.05112600       1.12284300
C        2.88543400       0.90167400       1.00545900
H       -3.49188300      -1.15307000      -1.82724800
H       -3.14918600       0.39590400      -1.06180200
H       -3.38446900      -1.04034300      -0.07376800
H       -1.07142800      -0.61229800      -2.04052500
H       -1.30528700      -2.04967300      -1.05896100
H       -1.04176100      -0.56175500       1.06019000
H       -0.28248200       1.58752200       0.75148200
H        1.24879100      -0.17436000      -1.04734500
H        1.13578900       0.17497800       2.03429600
H        2.07188800      -1.07707000       1.23764100
H        2.54930700       1.93226200       0.91579200
H        3.48494100       0.66988700       0.12751800
H        3.52942300       0.83128800       1.87976000
