20
Properties=species:S:1:pos:R:3 pbc="F F F"
C       -3.13710600       0.45484500       0.36105400
C       -1.62371700       0.55521000       0.21963300
C       -0.96557500      -0.80958800      -0.00760200
C        0.55933900      -0.79161300       0.03500200
N        1.22482800       0.09347000       1.00112900
C        1.39812700       0.35407300      -0.43562100
C        2.75597400       0.11596400      -1.06327000
H       -3.57816000       1.43768800       0.51429600
H       -3.40990700      -0.17021100       1.20921000
H       -3.58902800       0.02021300      -0.52878200
H       -1.19961800       1.01170900       1.11841600
H       -1.38150500       1.22507800      -0.61260000
H       -1.29337500      -1.22283600      -0.97022200
H       -1.32635800      -1.51212900       0.75413300
H        1.01150500      -1.78819400      -0.06881500
H        2.05770400      -0.35830800       1.38609400
H        0.88804500       1.25957800      -0.78285100
H        3.21717300      -0.78941100      -0.67271700
H        3.43144900       0.94802500      -0.86408200
H        2.67602500       0.01116500      -2.14516300
