18
Properties=species:S:1:pos:R:3 pbc="F F F"
C       -2.44943600       2.26047300      -0.46294200
C       -1.56888900       1.26524600      -1.21579500
C       -0.99592400       0.19771700      -0.32050800
C        0.30705600      -0.10855900      -0.25150700
C        0.85791900      -1.16692300       0.63788100
C        2.15637600      -0.97037400       1.36060100
N        2.08623800      -1.85310500       0.20389200
H       -2.86974900       2.99637000      -1.14556100
H       -1.87910300       2.79235800       0.29535800
H       -3.27349000       1.75331200       0.03498600
H       -0.75945700       1.79756800      -1.72543200
H       -2.17077300       0.78988200      -2.00297800
H       -1.70885300      -0.35372000       0.29419700
H        1.02697600       0.43789500      -0.85969200
H        0.11081800      -1.79098400       1.14553600
H        2.28280100      -1.43339200       2.34215200
H        2.72317500      -0.05008600       1.21270500
H        2.07137800      -2.83295100       0.49511200
