22
Properties=species:S:1:pos:R:3 pbc="F F F"
C        0.24479600       2.41299500      -0.99552400
C       -0.04461500       1.29688800       0.01823200
C        0.36264400      -0.07697800      -0.56354300
C       -0.12119800      -1.30620500       0.25883800
N       -1.59266200      -1.41458000       0.31426500
C        0.46222400      -2.60121200      -0.31979300
C        0.65119500       1.59026000       1.35402800
H       -0.28519300       2.23758400      -1.92952800
H        1.30789100       2.47107100      -1.21987800
H       -0.06700700       3.38010400      -0.60656900
H       -1.13240800       1.28594400       0.19911000
H        1.45305200      -0.11797400      -0.65507900
H       -0.03233100      -0.15816600      -1.58225800
H        0.23884000      -1.20029800       1.29830200
H       -1.97427000      -1.52892100      -0.62171500
H       -1.99784000      -0.57731100       0.72513300
H        0.13919700      -2.74969500      -1.34880000
H        0.13511700      -3.46148100       0.25906800
H        1.54983700      -2.57737100      -0.31002300
H        1.73273500       1.60736800       1.23506900
H        0.40768000       0.83793700       2.10102400
H        0.34304800       2.55878100       1.74285700
