15
Properties=species:S:1:pos:R:3 pbc="F F F"
C       -1.18381600       0.32478900       1.47197800
C        0.32953400       0.31058600       1.44701000
C        1.11695300       1.03312000       0.40252400
N        1.08810100      -0.43332400       0.42436600
C        0.37808200      -1.16628800      -0.63769900
C       -0.49212500      -0.36617700      -1.51698300
N       -1.16139100       0.23084000      -2.23949100
H       -1.53965900       1.07715700       2.17469400
H       -1.57881700      -0.63798000       1.79718200
H       -1.60685400       0.55270000       0.49751500
H        0.78635800       0.22864000       2.44232500
H        2.08070800       1.47895400       0.65850400
H        0.57795000       1.53404200      -0.40321500
H       -0.22301900      -1.96815400      -0.18165800
H        1.12459200      -1.66415700      -1.28045100
