18
Properties=species:S:1:pos:R:3 pbc="F F F"
C       -0.24957500      -1.82645500       0.94346600
C       -0.60996500      -0.57136000       0.13635400
C       -0.07065900       0.74320700       0.78699300
C        1.46052700       0.80799100       0.79188800
C       -0.66947800       1.97143800       0.09150800
C       -0.15651900      -0.70374500      -1.25850700
N        0.18641700      -0.81143300      -2.35191500
H       -0.59888100      -1.72933400       1.96950000
H        0.82512600      -1.99016200       0.96587100
H       -0.71300500      -2.70917400       0.50828700
H       -1.71061400      -0.49307400       0.10335600
H       -0.41705800       0.74009900       1.83309400
H        1.85429600       0.78856400      -0.22167600
H        1.89047900      -0.02879100       1.33809000
H        1.79886300       1.72625300       1.26712700
H       -0.36825200       2.01333500      -0.95282700
H       -0.33464800       2.88667100       0.57481600
H       -1.75721400       1.94918600       0.12755400
