18
Properties=species:S:1:pos:R:3 pbc="F F F"
C        0.24528900       1.22741200       2.14241900
C       -0.17335700       1.14607100       0.68955300
N        0.69604300       1.74528000      -0.33443200
C        0.56688900       0.28212100      -0.28095300
C       -0.12908700      -0.38228400      -1.45972600
C       -0.66278400      -1.76280600      -1.19177400
C       -0.66360500      -2.39227700      -0.01610400
H        0.03867100       2.21455400       2.55542900
H        1.31015500       1.03354700       2.25727900
H       -0.29546100       0.50035100       2.74759300
H       -1.24144200       1.31341700       0.50886400
H        1.58235900       2.04240700       0.08061900
H        1.44269500      -0.25530300       0.10463300
H        0.56382600      -0.43785500      -2.31182700
H       -0.95331900       0.25628200      -1.80253800
H       -1.08683900      -2.27002100      -2.05978400
H       -0.25877900      -1.93408400       0.87839900
H       -1.07424400      -3.38967700       0.08186000
