20
Properties=species:S:1:pos:R:3 pbc="F F F"
C       -0.93430100      -2.21542200       0.92036600
C        0.13706600      -1.76754500      -0.06715200
N        0.93852800      -0.65916100       0.47917300
C        1.63961300       0.20063900      -0.47758800
C        0.48464300       0.72860100       0.31245900
C       -0.83982100       1.08693600      -0.35563800
C       -0.94691000       2.58136300      -0.64134400
H       -1.49078700      -3.06439500       0.52782600
H       -1.64266800      -1.41465300       1.12464400
H       -0.48929900      -2.51230200       1.86747600
H       -0.32813800      -1.51261200      -1.03982700
H        0.82042700      -2.60802200      -0.26912500
H        1.48534300      -0.00349100      -1.54098800
H        2.66378100       0.47059400      -0.20886200
H        0.72392200       1.36150300       1.17875100
H       -0.95723600       0.53111300      -1.29071000
H       -1.67203200       0.78570300       0.29206900
H       -0.16009500       2.91021400      -1.31744700
H       -0.86043800       3.16238000       0.27508100
H       -1.90421300       2.82066500      -1.09972700
