16
Properties=species:S:1:pos:R:3 pbc="F F F"
C       -1.69629900       0.65578100       1.12739900
C       -1.63545100       0.14751900      -0.10665200
C       -0.55342400       0.37097100      -1.10330200
N        0.63829200       1.15821200      -0.79597800
C        0.81593300      -0.28244900      -0.99064600
C        1.18508100      -1.19159600       0.12666300
C        1.27824900      -0.86992700       1.42053300
H       -2.53282800       0.43668900       1.77897500
H       -0.92512600       1.30936900       1.51867100
H       -2.45447100      -0.48445800      -0.45467400
H       -0.91981400       0.49975300      -2.13069500
H        0.66869100       1.38923400       0.20097000
H        1.28365100      -0.54560400      -1.94814200
H        1.40612400      -2.21678000      -0.17490000
H        1.08653300       0.13455100       1.77892100
H        1.55466500      -1.61203100       2.15875700
