15
Properties=species:S:1:pos:R:3 pbc="F F F"
C       -2.17321700       1.45826600       0.67996800
C       -0.67403700       1.37601400       0.62758300
C        0.03642900       0.32702000       0.14871400
C        1.54186900       0.16818900       0.06179200
N        1.76067100      -1.15685900      -0.54301900
C        0.58140500      -1.66782000      -0.76036200
N       -0.47891300      -0.85923200      -0.38061000
H       -2.52522000       1.60697800       1.70322300
H       -2.64547700       0.55676400       0.29494100
H       -2.54460600       2.30271500       0.09462200
H       -0.12604600       2.23345400       1.00647300
H        2.03105700       0.22165000       1.04875900
H        2.01653900       0.95177900      -0.55203400
H        0.40871500      -2.64971600      -1.20410800
H       -1.46196300      -1.08100800      -0.47264200
