22
Properties=species:S:1:pos:R:3 pbc="F F F"
N       -1.85834200      -0.83749600      -1.86275800
C       -2.01058400      -0.20038000      -0.55227100
C       -1.07522500       1.00548400      -0.39062100
C        0.43616100       0.71116100      -0.39882400
C        1.04210600       0.24876900       0.95235100
C        0.83778400      -1.24807000       1.22113700
C        2.53969700       0.58858200       1.00406500
H       -2.47741400      -1.63958900      -1.94411700
H       -0.90177600      -1.15298200      -2.00054400
H       -1.86002500      -0.92083800       0.27826700
H       -3.04987000       0.15077900      -0.45920800
H       -1.33521500       1.53015700       0.53587900
H       -1.28707200       1.70542900      -1.20561600
H        0.94645800       1.63477200      -0.69347000
H        0.67529000      -0.02026800      -1.17723800
H        0.54484600       0.80965100       1.76048600
H        1.28011300      -1.85035600       0.42980500
H       -0.21664000      -1.50397600       1.28882000
H        1.31009200      -1.53409100       2.15912800
H        3.08396000       0.07769100       0.21222700
H        2.97337600       0.28485800       1.95470400
H        2.70263800       1.65794900       0.88515500
