20
Properties=species:S:1:pos:R:3 pbc="F F F"
C        0.66706200       1.89219100      -0.98030700
C        0.07922700       0.47485700      -0.95108300
C       -0.32536600       0.07482100       0.48888000
C       -0.68224200      -1.40944900       0.71837500
C        0.56855000      -1.49650400       1.59901300
N        0.81196400      -0.04463900       1.44777200
C       -1.11426300       0.36099400      -1.90873900
H        0.98621500       2.15981300      -1.98565900
H        1.52942100       1.97211700      -0.32156900
H       -0.06920500       2.62539800      -0.65696200
H        0.85890200      -0.22466900      -1.29453500
H       -1.09678900       0.78054500       0.85663700
H       -0.66833700      -2.04223900      -0.17326700
H       -1.62641700      -1.57782600       1.24276300
H        1.37287600      -2.12653000       1.18674100
H        0.40367500      -1.80583100       2.64363200
H        1.71990300       0.17041200       1.02858800
H       -1.91650400       1.03528500      -1.61455900
H       -1.51414300      -0.65132000      -1.91779700
H       -0.82115500       0.61586100      -2.92525100
