20
Properties=species:S:1:pos:R:3 pbc="F F F"
C        1.14723600       2.28399800       1.69384100
C        0.18001300       1.13176600       1.44133600
C        0.36413100       0.49587200       0.06902900
C        1.39480300      -0.57658900      -0.13718300
C       -0.06594100      -0.92320500      -0.17537400
C       -0.71838300      -1.32529800      -1.49047800
N       -2.17443300      -1.15896300      -1.43153300
H        0.98447000       2.71905000       2.67791700
H        1.01834900       3.07154300       0.95397700
H        2.18023300       1.94626000       1.64272300
H       -0.84913100       1.49832700       1.53762200
H        0.30861000       0.36942900       2.21692900
H        0.23003500       1.18496300      -0.76674800
H        1.97154800      -0.90283100       0.72287700
H        1.94559400      -0.58214000      -1.07330000
H       -0.44441300      -1.46374500       0.69522000
H       -0.43868500      -2.37452600      -1.73527700
H       -0.32436800      -0.70507700      -2.30857200
H       -2.56446800      -1.68861700      -0.65626800
H       -2.60790000      -1.47916300      -2.29339400
