20
Properties=species:S:1:pos:R:3 pbc="F F F"
C        0.78980000       1.66467800      -0.21794200
C        0.34498100       0.19873900      -0.12086500
C       -1.18580800       0.10890000      -0.06379000
C       -1.92066600      -1.06186200      -0.62021500
N       -1.91419800       0.21905600      -1.32947600
C        0.96852400      -0.52140700       1.09892900
C        2.48157200      -0.67990500       1.01478400
H        1.86968100       1.74388200      -0.32349800
H        0.49809000       2.22265100       0.67061900
H        0.33134400       2.14310700      -1.08034300
H        0.67663700      -0.31994900      -1.03287300
H       -1.64686700       0.61234900       0.79731100
H       -2.85820000      -1.37160500      -0.15304100
H       -1.36994200      -1.86595300      -1.11081200
H       -2.80169200       0.70877500      -1.19873700
H        0.51196800      -1.51338600       1.19197500
H        0.70887500       0.02140700       2.01454500
H        2.76881900      -1.22175600       0.11580500
H        2.85737400      -1.23296600       1.87321600
H        2.98287200       0.28519100       0.99675700
