20
Properties=species:S:1:pos:R:3 pbc="F F F"
C       -1.16351500      -1.61578300       1.43478900
C       -0.68307500      -0.16688200       1.43181000
C       -0.06501100       0.27670600       0.10002900
N        1.23389800      -0.37031600      -0.13142400
C        1.92394700      -0.09645900      -1.38595700
C       -1.01144000       0.59014100      -1.03843900
C       -0.27797200       1.69833000      -0.32154700
H       -1.63019200      -1.86340300       2.38586900
H       -0.33950900      -2.31024100       1.28074200
H       -1.89543100      -1.78678700       0.64787600
H        0.04932800      -0.02904300       2.23474000
H       -1.52794700       0.48726400       1.66727800
H        1.13575100      -1.37999200      -0.00287400
H        2.15217000       0.96801100      -1.47777800
H        1.35590500      -0.39846500      -2.28423000
H        2.87014700      -0.64363000      -1.39580600
H       -2.07846600       0.50367800      -0.85941900
H       -0.70721200       0.37234900      -2.05592000
H       -0.86346200       2.34457200       0.32533200
H        0.50403500       2.21158900      -0.86995300
