20
Properties=species:S:1:pos:R:3 pbc="F F F"
N       -0.80714500       1.46898600       1.06487500
C        0.13805500       1.69976000      -0.02940700
C        0.85290500       0.45927400      -0.57183100
C        0.14710300      -0.73554500      -1.16747500
C        0.98480100      -0.89958900       0.07686500
C        0.40054400      -1.29779800       1.41543800
C       -1.36133600      -0.85685600      -1.14859900
H       -1.33939400       2.31636300       1.24570800
H       -0.31194200       1.21791000       1.91641800
H        0.91799300       2.43599700       0.26675400
H       -0.41463200       2.17544200      -0.85509900
H        1.74779500       0.75165400      -1.12948700
H        0.59925400      -1.12906400      -2.08256900
H        1.95924800      -1.36409900      -0.10038900
H       -0.64355100      -1.01569700       1.50791100
H        0.95114200      -0.84414400       2.24076100
H        0.46392700      -2.37899800       1.54063800
H       -1.78611200      -0.38717300      -0.26575900
H       -1.67099100      -1.90235600      -1.16440400
H       -1.79515300      -0.37421500      -2.02455000
