19
Properties=species:S:1:pos:R:3 pbc="F F F"
C       -0.57268100       1.57956200       1.27906300
C       -1.04429700       1.15557500      -0.09525900
N       -0.32519400       1.63534200      -1.28789100
C       -0.29647700       0.19819800      -0.96787700
C        1.02443000      -0.45230500      -0.57828700
C        0.85327000      -1.88741700      -0.06410800
N        0.06273900      -1.93013700       1.16781100
H       -0.97068700       2.56167800       1.53418200
H        0.51246200       1.63939000       1.33518400
H       -0.91249500       0.88025500       2.04271100
H       -2.13496500       1.17488100      -0.21324000
H        0.55663000       2.07474000      -1.01071900
H       -0.89946200      -0.40739300      -1.65688100
H        1.68598400      -0.47455100      -1.45366400
H        1.53941100       0.15125800       0.17699500
H        1.85735300      -2.34285800       0.07489000
H        0.34450200      -2.49498200      -0.82695500
H        0.50315800      -1.37434200       1.89638500
H       -0.03017600      -2.88618500       1.50047800
