18
Properties=species:S:1:pos:R:3 pbc="F F F"
C       -2.21000700       0.21290500       0.19594900
C       -0.79126800      -0.02166200       0.72549500
C        0.11096400       1.23807700       0.60799200
C        0.92962300       1.09077200      -0.68833800
C        0.98137200      -0.40805000      -0.94014100
C       -0.04895800      -1.07757600      -0.09955500
N        1.37951400      -1.19802100       0.23936700
H       -2.72056800       0.97922600       0.77626300
H       -2.80259300      -0.69904200       0.25247900
H       -2.19588600       0.53645400      -0.84321400
H       -0.86681300      -0.32817500       1.78085800
H        0.78980200       1.27633300       1.46390500
H       -0.47151900       2.16364900       0.62327100
H        1.92217200       1.54283000      -0.59298200
H        0.43355000       1.59122800      -1.52859000
H        1.26986000      -0.78887100      -1.92564500
H       -0.57186800      -1.98256900      -0.42751400
H        1.72691500      -2.11170100      -0.06281500
