18
Properties=species:S:1:pos:R:3 pbc="F F F"
C       -0.82739400       0.14129700       1.95792300
C       -0.94635700      -0.58304000       0.64452700
C       -1.68796300      -1.70045500       0.53603400
C       -0.21718900      -0.04219600      -0.53949200
C        0.10146900       1.43286900      -0.68721100
C        1.21474800       0.48010600      -0.43618500
N        2.17558700       0.20991600      -1.48940500
H       -1.32684500      -0.40660300       2.75258700
H       -1.27700800       1.13352500       1.89821400
H        0.21628900       0.28042600       2.24190500
H       -2.21177900      -2.11110700       1.38928300
H       -1.78267800      -2.21916500      -0.40965400
H       -0.45036700      -0.55365900      -1.47405200
H       -0.19995400       2.10000000       0.11434900
H        0.00490200       1.85567200      -1.68236900
H        1.66509400       0.49043100       0.56053200
H        1.75498400       0.32115600      -2.40789400
H        2.55436900      -0.73156500      -1.41064800
