20
Properties=species:S:1:pos:R:3 pbc="F F F"
C       -1.76113400      -1.52452500      -1.43685600
C       -1.88478500      -0.01769100      -1.24949300
C       -1.17688500       0.50930400       0.00813800
C        0.34091500       0.37011600      -0.03841800
C        1.01964200      -0.84232900       0.55688600
C        1.15350100       0.51475700       1.20760800
N        2.41308300       1.24585600       1.16179900
H       -2.28870100      -1.84637200      -2.33257300
H       -2.18385800      -2.05941800      -0.58874700
H       -0.72040300      -1.82363800      -1.53433400
H       -2.94548800       0.25190600      -1.19620400
H       -1.48266100       0.49264200      -2.13146500
H       -1.56434500      -0.00815100       0.89212600
H       -1.43703400       1.56834000       0.13296600
H        0.79901600       0.75560500      -0.95126200
H        1.87775900      -1.24685200       0.02974400
H        0.39283300      -1.58495300       1.04025900
H        0.60948400       0.66303600       2.14534100
H        2.82926200       1.18854900       0.23616100
H        3.07502600       0.87051700       1.83820300
