19
Properties=species:S:1:pos:R:3 pbc="F F F"
N       -0.73669600       0.00287700      -1.86678500
C       -0.75479400      -0.01061900      -0.40290600
C        0.19430900      -0.99313700       0.35483300
C       -0.42718100      -2.15738700       1.12319200
N        0.66875800       0.13852600       1.20256000
C       -0.01901700       1.14035900       0.33520200
C        0.92619100       2.00714400      -0.49373500
H       -1.20133000      -0.82204200      -2.23871000
H        0.21637700       0.02369800      -2.22155500
H       -1.80093700      -0.10595300      -0.06974100
H        0.99963400      -1.37298100      -0.30625800
H       -1.22247700      -1.81221800       1.78056500
H        0.31816600      -2.66056200       1.73712000
H       -0.84900800      -2.89087500       0.43768700
H        1.68655900       0.23922300       1.21839700
H       -0.69111900       1.80021300       0.91932700
H        1.64299900       1.40206700      -1.04692100
H        1.48876400       2.68197500       0.14994000
H        0.37088300       2.60947100      -1.20979300
