20
Properties=species:S:1:pos:R:3 pbc="F F F"
C       -2.15653900       1.09710000       1.29769800
C       -0.72494600       0.78759300       1.71850400
C        0.32220000       1.13258000       0.64748100
C        0.25571900       0.23642300      -0.58301700
C        1.46020800       0.00724500      -1.43872100
N        0.97707900      -1.04166800      -0.53359800
C        0.32200900      -2.18873700      -1.16419200
H       -2.85252300       0.86444500       2.10104300
H       -2.44875700       0.51531900       0.42607300
H       -2.27316000       2.15036100       1.04898400
H       -0.64080900      -0.27192600       1.97900600
H       -0.49309000       1.34895000       2.63039000
H        1.32067500       1.05436100       1.08900800
H        0.19769000       2.17988300       0.34388700
H       -0.71210400       0.22070000      -1.10316700
H        2.41731600       0.45554700      -1.16487700
H        1.31675000      -0.14755300      -2.51109000
H        1.07426800      -2.92026300      -1.47508900
H       -0.27439900      -1.91452800      -2.04994000
H       -0.34331600      -2.67684600      -0.44555700
