19
Properties=species:S:1:pos:R:3 pbc="F F F"
N        0.70872400       2.29211500      -1.39300700
C        1.25023900       1.24126500      -0.52400200
C        0.12923800       0.42994300       0.11148800
C       -0.39445300      -0.83043700      -0.51267700
N        0.48551900      -0.88252500       0.67062600
C       -0.09262800      -1.24416300       1.96530700
C       -1.85788300      -1.21557100      -0.43772000
H        1.45815000       2.85947400      -1.78038500
H        0.08021800       2.89942300      -0.87305000
H        1.89792400       1.66619000       0.27386400
H        1.89281900       0.58135500      -1.12293300
H       -0.59384600       1.01605700       0.69779500
H        0.10794000      -1.17814900      -1.42552700
H       -0.26859700      -2.32295900       2.00579000
H       -1.04197700      -0.73160200       2.18713600
H        0.61414900      -0.99179400       2.76304500
H       -2.36200500      -0.74358300       0.40252200
H       -1.97629800      -2.29482900      -0.33828500
H       -2.37525900      -0.91294100      -1.34768400
