15
Properties=species:S:1:pos:R:3 pbc="F F F"
C       -1.48102700      -0.00704800      -1.32043600
C        0.03071700      -0.03347900      -1.30009700
C        0.84549100      -0.77993100      -0.25676000
C        0.85343600       0.73689500      -0.27856600
N        0.19861500       1.08357300       0.95993900
C       -0.22198000      -0.09390600       1.55420300
N        0.17368600      -1.19316500       0.96133600
H       -1.87049200      -0.80899100      -1.94682100
H       -1.85833400       0.93617600      -1.71987400
H       -1.89202600      -0.13703200      -0.32202800
H        0.49164300      -0.04693000      -2.28960600
H        1.67710700      -1.40374300      -0.59863600
H        1.68876600       1.37354400      -0.59140100
H       -0.21005700       1.99243100       1.14418200
H       -0.79253300      -0.07350400       2.48520400
