19
Properties=species:S:1:pos:R:3 pbc="F F F"
C       -2.20471900      -0.89743700      -0.66531700
C       -0.69066200      -0.70377300      -0.71996500
N        0.10717900      -1.83139900      -0.16479700
C        0.91052300      -0.90478400       0.65865500
C       -0.03949900       0.25861100       0.30901600
C        0.58903200       1.55729800      -0.23310500
N        1.32952500       2.31602300       0.78316500
H       -2.51640700      -1.70053900      -1.33092000
H       -2.72242400       0.01107500      -0.96848200
H       -2.53061600      -1.15258100       0.34054000
H       -0.38814900      -0.45812800      -1.75932500
H        0.64673200      -2.34633200      -0.86419400
H        1.94145900      -0.76677200       0.29041400
H        0.96892300      -1.19074000       1.72180800
H       -0.71869600       0.49605700       1.14036500
H        1.27257500       1.32447500      -1.06205900
H       -0.19980600       2.20312000      -0.64525800
H        2.08726800       1.75320500       1.16235100
H        0.71415900       2.57530000       1.55048500
