18
Properties=species:S:1:pos:R:3 pbc="F F F"
C       -2.21402400       0.06778700      -0.00465000
C       -0.82289800      -0.27333400      -0.54976700
C       -0.09109600      -1.34257200       0.31116500
C        0.87720700      -0.55673900       1.20505200
C        1.08759000       0.75824700       0.47088400
N        0.03674500       0.94767800      -0.54195600
C        1.41800800       0.69161600      -0.98254000
H       -2.86225900      -0.80675400      -0.02017100
H       -2.68295900       0.84639200      -0.60272500
H       -2.15567700       0.42475100       1.02144500
H       -0.93348900      -0.62644700      -1.59180400
H        0.46164300      -2.03573700      -0.33073200
H       -0.78949400      -1.94748400       0.89478200
H        1.81291800      -1.09947900       1.37875100
H        0.43573300      -0.36892500       2.19012400
H        1.37751400       1.64337900       1.04693500
H        1.90796000       1.54266700      -1.45922500
H        1.64217200      -0.27613900      -1.43455800
