18
Properties=species:S:1:pos:R:3 pbc="F F F"
C        0.01091000       0.91991100      -1.70006100
C       -0.78494100       0.28942600      -0.58837600
C       -2.05514900      -0.10614100      -0.79020600
C       -0.10958500       0.10875300       0.72808500
C       -0.79652800       0.13932000       1.88399100
C        1.39926900      -0.06423800       0.74552600
N        1.83526100      -1.15251900      -0.13579500
H       -0.60435600       1.07484100      -2.58302700
H        0.85468200       0.28638400      -1.97489400
H        0.41878900       1.88344100      -1.39250100
H       -2.53696200       0.03421300      -1.74993300
H       -2.62958900      -0.58912500      -0.00949700
H       -1.86617300       0.30807600       1.90436600
H       -0.29590600       0.00457700       2.83591600
H        1.73411100      -0.21874500       1.79162300
H        1.87812400       0.86950400       0.40621900
H        1.37533000      -2.02337200       0.11721600
H        2.84126900      -1.28434700      -0.06867800
