18
Properties=species:S:1:pos:R:3 pbc="F F F"
C        0.51199900      -1.85001700      -1.11879300
C       -0.43904100      -0.77747700      -0.55584200
N       -0.50830400      -0.80167000       0.92894800
C        0.41027800       0.20566400       1.48532700
C        0.55462500       1.24647900       0.38873400
C        0.03278200       0.64086100      -0.87871100
C       -0.72301100       1.75315300      -0.21358600
H        0.17086100      -2.84832700      -0.84984300
H        1.52065100      -1.72551000      -0.73020000
H        0.56195900      -1.79551900      -2.20471400
H       -1.45161700      -0.96935100      -0.97274400
H       -0.32596300      -1.73420900       1.30273800
H        1.40176700      -0.22529000       1.73727500
H        0.00908100       0.62246400       2.42708000
H        1.42759700       1.89903100       0.39144500
H        0.51070900       0.83172800      -1.83938700
H       -1.65794900       1.51678600       0.28451700
H       -0.69476300       2.72790700      -0.69157000
