20
Properties=species:S:1:pos:R:3 pbc="F F F"
C       -3.07154000       1.13477700       0.84879300
C       -1.57686700       1.08300200       0.79949300
C       -0.87174900       0.66362400      -0.25910100
C        0.63034900       0.62844300      -0.31470000
C        1.20083700      -0.77816900      -0.67808400
N        2.66028800      -0.73113300      -0.88707000
C        0.86633700      -1.81896400       0.39320900
H       -3.45731500       0.52100000       1.66470300
H       -3.51444000       0.78352200      -0.08030600
H       -3.41983300       2.15335800       1.02920500
H       -1.05181400       1.41596900       1.69499900
H       -1.39826100       0.33028200      -1.15425400
H        1.05006500       0.96264400       0.63981300
H        0.97930900       1.34013200      -1.07615900
H        0.73947200      -1.09466200      -1.63226500
H        3.13690800      -0.49346400      -0.02033600
H        2.89938100      -0.03274500      -1.58694200
H        1.30394900      -1.54599600       1.35208500
H        1.25587100      -2.79545000       0.11467600
H       -0.20951200      -1.90293900       0.52660700
