20
Properties=species:S:1:pos:R:3 pbc="F F F"
C       -1.47053200       0.21899200      -1.22833900
C        0.05137800       0.24895100      -1.06855700
C        0.52360700       0.66885200       0.31093600
C       -0.24934100       1.00999900       1.34926400
C        0.28397100       1.42966500       2.68396700
C        0.68401700      -1.10834400      -1.46507700
N        0.20077900      -2.19470100      -0.61367200
H       -1.91118500       1.18718500      -0.99768600
H       -1.91725900      -0.52568400      -0.57397300
H       -1.73662300      -0.03528500      -2.25268900
H        0.45102700       0.99420600      -1.78241800
H        1.60793600       0.69165700       0.43731200
H       -1.33385900       0.99420200       1.25227200
H        1.37138100       1.41509600       2.70350500
H       -0.08072300       0.77071600       3.47398400
H       -0.04801600       2.43822500       2.93688200
H        1.79096100      -1.01082000      -1.42508800
H        0.43215000      -1.33646800      -2.51198600
H        0.34439200      -1.96594600       0.36694600
H        0.68576800      -3.06286400      -0.82452000
