18
Properties=species:S:1:pos:R:3 pbc="F F F"
C       -2.92606300      -0.19315800      -0.96214600
C       -1.45669500      -0.00975700      -1.17499900
C       -0.51032900      -0.70295500      -0.53090500
C        0.96678200      -0.51589600      -0.75280500
C        1.72196200       0.08547100       0.43595900
C        1.22839200       0.03962500       1.84174500
N        1.17914300       1.28441500       1.07560100
H       -3.38150900       0.72455900      -0.58532800
H       -3.13099600      -0.99023500      -0.25076100
H       -3.42984800      -0.43283200      -1.90026400
H       -1.16459100       0.74925900      -1.90071900
H       -0.80465200      -1.45839200       0.19841900
H        1.13043500       0.11960800      -1.63145200
H        1.42301800      -1.48862600      -0.98877300
H        2.81421100       0.07405700       0.30695400
H        1.95843400      -0.02198100       2.65256000
H        0.25888400      -0.40479600       2.06831500
H        1.92831800       1.91849000       1.36074600
