18
Properties=species:S:1:pos:R:3 pbc="F F F"
C       -1.55949200      -0.99827700       1.44271700
C       -0.97230200      -1.32692900       0.08646900
C       -1.35736200      -0.53513900      -1.12900100
C        0.04168100      -0.43614400      -0.58654700
C        0.52611400       0.84852200       0.04707900
C        1.91886700       0.95471200       0.57058300
N        1.53430800       1.64618100      -0.66133400
H       -2.49455700      -1.53601100       1.59766000
H       -1.76806800       0.06444900       1.54067000
H       -0.87984300      -1.28309800       2.24592900
H       -0.82793000      -2.39638700      -0.07996900
H       -2.01005600       0.31997500      -0.98529300
H       -1.50948700      -1.06626400      -2.06367000
H        0.80884700      -0.95715400      -1.16409900
H       -0.24835700       1.45002800       0.53631400
H        2.58571500       0.09558100       0.47222500
H        2.13416200       1.60411200       1.42064800
H        1.88438500       1.14102600      -1.47887900
