19
Properties=species:S:1:pos:R:3 pbc="F F F"
C       -1.61703200      -0.45903400      -1.15682900
C       -0.10005600      -0.27662700      -1.18181900
N        0.68986300      -1.38297700      -0.58104600
C        1.54507400      -0.42267100       0.14857400
C        0.59647300       0.73534900      -0.22422200
C       -0.22887600       1.35545500       0.91446200
N       -0.53732400       0.39506800       1.97450200
H       -1.90998600      -1.27451200      -1.81626600
H       -2.12015800       0.44415000      -1.49806400
H       -1.98320800      -0.69408000      -0.16024900
H        0.20918100      -0.08375000      -2.23145300
H        1.18858700      -1.96008400      -1.26222000
H        2.55738300      -0.32163400      -0.27942000
H        1.64896200      -0.64621600       1.22046900
H        1.09256400       1.55024000      -0.77334700
H       -1.14851000       1.80921800       0.48427800
H        0.33841700       2.19320600       1.35358500
H       -0.89384600      -0.47365700       1.58521100
H       -1.22065400       0.77765200       2.62228100
