18
Properties=species:S:1:pos:R:3 pbc="F F F"
C        1.17804000      -2.28467500       0.22945100
C        0.68432200      -1.78962000       1.55065100
C       -0.14636700      -0.75064800       1.76979700
C       -0.74283800       0.16085700       0.79102900
C       -0.21843100       0.53016600      -0.39295400
C       -0.90785900       1.46712300      -1.34896500
N        0.04900400       2.37018400      -1.99515100
H        1.32368100      -3.36397500       0.25829400
H        2.14264200      -1.84009900      -0.02886700
H        0.48315300      -2.05091000      -0.57531900
H        1.02145100      -2.35502600       2.41948700
H       -0.45384000      -0.57123000       2.80098200
H       -1.69076300       0.60923900       1.09648200
H        0.75648200       0.16080600      -0.70276200
H       -1.71872600       2.01611300      -0.82432400
H       -1.40807000       0.87991100      -2.13986600
H        0.54792400       2.92069900      -1.30133700
H       -0.42815900       3.00396900      -2.63076100
