14
Properties=species:S:1:pos:R:3 pbc="F F F"
C        0.26947100       0.79087200       2.95811200
C       -0.07239400       0.77440400       1.79985800
C       -0.50193500       0.75837900       0.40222700
C       -0.02007300      -0.51073300      -0.35113000
C       -0.61148100      -0.54734600      -1.69977900
N       -1.08119400      -0.57949100      -2.74944700
C        1.50991100      -0.59539400      -0.42131200
H        0.56722600       0.81238800       3.97774700
H       -0.12373500       1.65497500      -0.10404500
H       -1.59683100       0.81198300       0.36391800
H       -0.39677000      -1.39491400       0.18876200
H        1.92386200       0.25190400      -0.96351800
H        1.82321800      -1.50650100      -0.92597500
H        1.93039500      -0.59448700       0.58137900
