20
Properties=species:S:1:pos:R:3 pbc="F F F"
C        0.84739800      -0.30986900       2.20213200
C        0.72412600       1.03048800       1.48810500
C       -0.60127500       1.20476100       0.73218800
C       -0.71981800       0.46501000      -0.59873000
C        0.37299100       0.42106300      -1.61880600
N        0.03650500      -0.76993100      -0.83162000
C       -0.66396200      -1.84121900      -1.54127100
H        1.79589300      -0.37702600       2.73167200
H        0.79367600      -1.13277600       1.49381600
H        0.04749300      -0.43819300       2.92925600
H        1.56471900       1.15808600       0.79861000
H        0.80962000       1.83665100       2.22575000
H       -0.76266600       2.27448500       0.54177100
H       -1.42776500       0.89410300       1.38314300
H       -1.74002700       0.47803200      -1.01202700
H        1.34703400       0.86426400      -1.40435900
H        0.09374300       0.42199200      -2.67579000
H        0.06068000      -2.48554800      -2.04839400
H       -1.37579300      -1.46798800      -2.29608500
H       -1.21889900      -2.45797100      -0.82773500
