18
Properties=species:S:1:pos:R:3 pbc="F F F"
C       -1.53957200       0.38422000       1.20269000
C       -0.04344300       0.37459700       0.88221200
C        0.37595800       1.58755400       0.00561400
C        0.93131600       0.98812800      -1.25474600
C        0.95594700      -0.34639500      -1.22424800
C        0.44571600      -0.90788300       0.08483000
N       -0.54403600      -1.97440900      -0.11957000
H       -1.80589400       1.28797300       1.74829600
H       -1.81797900      -0.46905300       1.81938900
H       -2.14208700       0.35575900       0.29679200
H        0.49834100       0.41742800       1.83934800
H        1.12796100       2.20650100       0.51221500
H       -0.46828900       2.25594100      -0.20593600
H        1.27140800       1.59958300      -2.08590500
H        1.31318600      -0.98127600      -2.02950400
H        1.29197900      -1.36224300       0.64053400
H       -1.34284600      -1.63112000      -0.64665200
H       -0.87306000      -2.33995100       0.77030500
