20
Properties=species:S:1:pos:R:3 pbc="F F F"
C       -0.66788600       1.66202000       1.63275900
C       -0.69716100       1.73143700       0.11137300
C       -0.16578700       0.46522100      -0.59505400
C       -0.99951300      -0.81480000      -0.37011600
C        0.01866200      -1.96582600      -0.30105000
C        1.39641000      -1.31286400      -0.47545200
N        1.19134200       0.09965000      -0.14519300
H       -0.98831200       2.60672500       2.06813600
H        0.33706800       1.44731300       1.98833400
H       -1.32770600       0.88206400       2.00767000
H       -0.09940600       2.58960300      -0.21695200
H       -1.72016200       1.92485800      -0.22988700
H       -0.15949200       0.68511000      -1.69145900
H       -1.72566100      -0.95814800      -1.17561800
H       -1.57569100      -0.75384100       0.55750800
H       -0.16548500      -2.72280000      -1.06877800
H       -0.04799000      -2.48122500       0.66169100
H        1.75675300      -1.44619900      -1.51753700
H        2.16186000      -1.76372800       0.17639000
H        1.90649000       0.70159100      -0.55791400
