18
Properties=species:S:1:pos:R:3 pbc="F F F"
C       -1.59481100      -0.41340800      -1.16842200
C       -0.08758400      -0.20535300      -1.24073300
C        0.78531700      -1.39247300      -0.78383500
N        1.23865700      -0.63694100       0.40110900
C        0.57980500       0.60147200      -0.08119200
C       -0.30424700       1.31269900       0.91158600
C       -0.45490500       0.94918200       2.18505200
H       -1.91836500      -1.14563700      -1.90747200
H       -2.12804900       0.51582800      -1.36414500
H       -1.89336700      -0.77267200      -0.18649800
H        0.18287200       0.17624800      -2.23685100
H        1.59744100      -1.64965400      -1.48434200
H        0.24853900      -2.32191300      -0.53433800
H        2.25426800      -0.56286100       0.49068600
H        1.31202400       1.33401600      -0.48774100
H       -0.83408600       2.18775200       0.53199600
H        0.06195400       0.08053200       2.57608300
H       -1.09527400       1.50423800       2.86012400
