12
Properties=species:S:1:pos:R:3 pbc="F F F"
C       -2.93120200       0.89549500       0.45057900
C       -1.72179400       0.80543200       0.40536300
C       -0.29461300       0.77744400       0.39137900
C        0.44323200      -0.24062800      -0.12110500
C        1.88360600      -0.16244600      -0.08171700
N        3.03711900      -0.11572100      -0.05819300
C       -0.14643000      -1.47433200      -0.74207300
H       -3.99257400       0.94769000       0.47674600
H        0.20570400       1.64243100       0.82681500
H       -1.23227700      -1.43593000      -0.72312700
H        0.18097300      -2.36897800      -0.21069200
H        0.18155300      -1.58096500      -1.77695500
