16
Properties=species:S:1:pos:R:3 pbc="F F F"
C       -2.16515000       0.33650900      -0.81314700
C       -0.91050400       0.23352700      -0.35311700
C       -0.11138400       1.34134800       0.29563600
N        1.30055300       0.91537400       0.22996100
C        1.33636700      -0.51956300      -0.04097800
C       -0.03522200      -0.96900800      -0.43511400
C        0.56986200      -1.42802200       0.88021300
H       -2.71497900       1.26695800      -0.74400000
H       -2.66673500      -0.50840800      -1.26787600
H       -0.44034000       1.49153100       1.34277800
H       -0.25808400       2.31206300      -0.20812500
H        1.81395200       1.16487900       1.07840200
H        2.23785900      -0.89199100      -0.53723300
H       -0.21236500      -1.71687700      -1.20694700
H        0.87119500      -2.46973600       0.93099600
H        0.16180900      -1.02478700       1.80131900
