20
Properties=species:S:1:pos:R:3 pbc="F F F"
N       -1.08430200       2.85207100       0.92696100
C       -1.52635500       1.47106000       1.12946100
C       -0.96950200       0.53718100       0.04486900
C        0.53404200       0.45106200       0.06722700
C        1.28126000      -0.64822000      -0.09971800
C        0.79383700      -2.05674900      -0.32838600
C        1.29484400      -2.63963600      -1.64917500
H       -1.46892300       3.46160900       1.64383700
H       -1.37835900       3.19458500       0.01573000
H       -2.63520800       1.39008500       1.13410800
H       -1.19019300       1.13738800       2.12121500
H       -1.29323900       0.91284100      -0.93705400
H       -1.42082600      -0.45349500       0.15650300
H        1.04458300       1.40036800       0.22727100
H        2.36609800      -0.53733500      -0.07126500
H       -0.29866900      -2.10014000      -0.30205100
H        1.14966700      -2.69298200       0.49350100
H        0.92616600      -2.06381600      -2.49518100
H        0.95800500      -3.66754700      -1.76965200
H        2.38224900      -2.63424300      -1.69135100
