18
Properties=species:S:1:pos:R:3 pbc="F F F"
C       -0.26558700      -1.38209000       1.87716400
C       -1.08254700      -1.08266800       0.86367400
C       -0.67574500      -0.38704200      -0.38823800
C       -0.17328900       1.04164600      -0.41628400
N        0.74901000      -0.07991200      -0.60413800
C        1.25587700      -0.28832100      -1.96077200
C       -0.02911200       1.88744500       0.82896400
H       -0.63281600      -1.88272100       2.76457000
H        0.79022800      -1.14395800       1.83039700
H       -2.13851900      -1.34942400       0.93009300
H       -1.24332200      -0.68818400      -1.28133000
H       -0.43021600       1.60500700      -1.32635800
H        2.14109800       0.33366700      -2.12489700
H        0.51669200      -0.04170400      -2.74147200
H        1.55095900      -1.33365000      -2.09079000
H        0.14366800       1.26827000       1.70599000
H       -0.92733100       2.48003200       1.00138000
H        0.80890400       2.57822200       0.73433200
