20
Properties=species:S:1:pos:R:3 pbc="F F F"
C        1.89682000       1.02500600       1.08909000
C        0.54257500       0.69029400       1.70105300
C       -0.66547700       1.09542300       0.84209200
C       -0.95380400       0.20636200      -0.37161700
C       -0.09114600       0.16473900      -1.59298700
N       -0.10071500      -0.95415200      -0.64551300
C       -0.77435900      -2.17562500      -1.08741100
H        2.69704700       0.80139700       1.79218800
H        1.96267000       2.08116000       0.83312800
H        2.07708400       0.44684400       0.18688600
H        0.45772400       1.19886800       2.66851500
H        0.49350100      -0.38233800       1.91055800
H       -0.55155800       2.13837200       0.51918600
H       -1.55506900       1.08197600       1.48320200
H       -2.02675700       0.05734300      -0.56365000
H        0.83474600       0.74050600      -1.63460700
H       -0.57581100       0.00825000      -2.56077900
H       -0.08293500      -2.78919600      -1.67302100
H       -1.66555800      -1.97991200      -1.70638300
H       -1.08772900      -2.76139000      -0.21795300
