16
Properties=species:S:1:pos:R:3 pbc="F F F"
C       -1.86835200      -0.16251400      -0.16391800
C       -0.40000000      -0.11344600      -0.49478800
C        0.02488600       0.36213400      -1.67988700
C        1.43364600       0.47658600      -2.17195500
C        0.52807100      -0.66779800       0.57513400
C        0.24679800      -0.13245700       1.90864900
N        0.04109500       0.27860000       2.96371100
H       -2.47140800       0.22329100      -0.98229800
H       -2.08521300       0.42391800       0.72977500
H       -2.18762500      -1.18539900       0.04367400
H       -0.73463900       0.70778200      -2.38112500
H        2.17154100       0.23227700      -1.41208900
H        1.63221800       1.49010600      -2.52183500
H        1.59806700      -0.18719700      -3.02305100
H        1.57800200      -0.46815400       0.33786700
H        0.42108900      -1.76185100       0.62369800
