13
Properties=species:S:1:pos:R:3 pbc="F F F"
N       -1.84731600      -0.09764200       0.02090300
C       -0.99858900      -1.19846200      -0.08799600
C        0.27527900      -0.64785100      -0.03467600
C        0.19664600       0.73700500       0.07725500
C       -1.15290300       1.09126900       0.10095400
C        1.71877700       0.80119600       0.00921100
N        1.71801500      -0.70481000      -0.17984300
H       -2.85741100      -0.16519100       0.03745800
H       -1.38855900      -2.20699000      -0.14172100
H       -1.67082600       2.03991500       0.18282400
H        2.23031700       1.12764100       0.92798900
H        2.15233500       1.33979700      -0.84678500
H        2.20398200      -1.21694500       0.56433600
