17
Properties=species:S:1:pos:R:3 pbc="F F F"
N        0.73247000       1.83009900       1.33133000
C        1.36512400       0.57987000       0.86224400
C       -0.02066400       0.00574300       0.49532300
C       -0.57657200       1.41562800       0.78702000
C       -0.20342000      -0.53911300      -0.91415100
C       -1.33000200      -1.45482100      -1.25689900
N        0.03139300      -1.97173700      -1.11926200
H        1.11368700       2.67931600       0.90942800
H        1.92808700       0.04392000       1.64299300
H        2.03526000       0.72255900      -0.00200100
H       -0.36741900      -0.73881000       1.22367500
H       -1.40384200       1.48068300       1.51282100
H       -0.87572100       1.97583200      -0.11529900
H        0.15070300       0.12234100      -1.71714500
H       -1.75345200      -1.42018000      -2.26309400
H       -2.02735900      -1.77196900      -0.48011900
H        0.44621500      -2.14607100      -2.03695400
