20
Properties=species:S:1:pos:R:3 pbc="F F F"
C       -1.12624000       1.28944900      -0.49849200
C        0.37481700       1.01393100      -0.34549900
C        0.79777800       0.37972600       0.97205700
C        0.15654300      -0.47990000       1.77656300
C       -1.20765800      -1.08032500       1.61478300
C        0.92657600       0.20873400      -1.55098500
N        0.33498000      -1.12612600      -1.63117700
H       -1.54839300       1.69432300       0.41835400
H       -1.67470000       0.39026600      -0.76450900
H       -1.28861300       2.01652800      -1.29280600
H        0.88500700       1.99290800      -0.37762200
H        1.80090900       0.67422500       1.28694000
H        0.67906200      -0.78366700       2.68498500
H       -1.50328200      -1.17192800       0.57423300
H       -1.96271700      -0.47963700       2.12662400
H       -1.23579000      -2.07258400       2.06285700
H        2.03463300       0.16618500      -1.47499400
H        0.70139500       0.75355000      -2.48038300
H        0.48937000      -1.63085900      -0.76130400
H        0.74736300      -1.65610900      -2.39470600
