19
Properties=species:S:1:pos:R:3 pbc="F F F"
N        2.27720500       0.08695100      -0.65324100
C        1.52120300       0.03081600       0.59911800
C        0.01417600      -0.19922300       0.39929000
C       -0.72555500      -0.34444000       1.72382300
C       -0.43880600      -1.06031800      -0.76531200
C       -0.68061800       0.43242000      -0.77387600
N       -2.02139900       0.99017100      -0.64837000
H        3.27465400       0.12205700      -0.46088100
H        2.02799500       0.91044200      -1.19517500
H        1.66530800       0.95054900       1.20844300
H        1.92876500      -0.79365900       1.20402700
H       -1.75952400      -0.64935500       1.57890900
H       -0.72575100       0.59338200       2.28017600
H       -0.24663900      -1.09639900       2.35160300
H       -1.28962700      -1.71385200      -0.59960000
H        0.32848500      -1.45866300      -1.42112100
H       -0.05840900       1.01715200      -1.45831500
H       -2.55959800       0.49842800       0.05920300
H       -2.51869900       0.92452700      -1.53424500
