20
Properties=species:S:1:pos:R:3 pbc="F F F"
C        1.14838600       1.48188900      -0.73700800
C        0.63159900       0.03714900      -0.80048600
C       -0.90852700       0.00200400      -0.86895000
C       -1.81738700       0.49986600       0.20271800
N       -1.65444500      -0.93594300      -0.02997200
C        1.25691000      -0.86527000       0.29106700
C        1.08601400      -0.40884700       1.73426400
H        2.23644000       1.50472900      -0.73573500
H        0.80174500       1.99044700       0.16026200
H        0.80169900       2.05349500      -1.59652100
H        0.98163600      -0.38183900      -1.76081700
H       -1.29355300       0.12068900      -1.89247000
H       -2.77099200       0.94713200      -0.08866600
H       -1.41336600       0.87356500       1.14350300
H       -2.45974600      -1.31698700      -0.53091700
H        2.32871400      -0.94886100       0.07466500
H        0.84199900      -1.87207400       0.18442800
H        1.45722300       0.60341300       1.88222100
H        1.64337000      -1.06543700       2.40027300
H        0.04396800      -0.43742700       2.03994900
