18
Properties=species:S:1:pos:R:3 pbc="F F F"
C       -0.94317600       0.05054900      -1.73030400
C       -1.19590100       0.04015100      -0.25004000
C       -2.08254500       0.86648100       0.32423800
C       -0.41619800      -0.96805500       0.56845600
C        1.05721300      -0.61742900       0.79796300
C        1.58541100       0.77426200       0.74928800
N        1.87593800      -0.17147200      -0.33060700
H       -1.52625500       0.82097300      -2.22924300
H       -1.20115900      -0.91459600      -2.16948400
H        0.11489000       0.21936100      -1.93328800
H       -2.64538600       1.58120800      -0.26300400
H       -2.26190800       0.84496400       1.39218500
H       -0.46771500      -1.94950800       0.07842800
H       -0.89219500      -1.08726700       1.54859700
H        1.55684400      -1.30267200       1.49735900
H        2.41177900       1.04821400       1.40888400
H        0.92100800       1.59480000       0.47882200
H        2.82970800      -0.53093300      -0.25261500
