18
Properties=species:S:1:pos:R:3 pbc="F F F"
C       -2.19185500      -0.43053200       0.33362700
C       -0.70100500      -0.42850500       0.21205100
C        0.09453300      -1.49464600       0.04589100
C        1.53893300      -1.09372000      -0.01993300
N        1.53160400       0.36494800       0.19704300
C        0.12739300       0.84404300       0.28638200
C       -0.20458000       1.87171700      -0.80803900
H       -2.58820800      -1.44325100       0.31291500
H       -2.65542200       0.13121900      -0.47980100
H       -2.50975900       0.04113700       1.26528200
H       -0.24294300      -2.52413700      -0.02610600
H        2.00183100      -1.35828400      -0.99066500
H        2.14623700      -1.61507600       0.74836500
H        2.05114400       0.85744200      -0.52948700
H       -0.04356600       1.34215900       1.26986300
H       -0.08014700       1.44610000      -1.80184000
H        0.45062300       2.73782800      -0.73065700
H       -1.23153400       2.22008400      -0.71704900
