16
Properties=species:S:1:pos:R:3 pbc="F F F"
C       -1.82953400       0.73595200       0.72947000
C       -1.86689800      -0.06250100      -0.34511400
C       -0.84697700      -0.20809900      -1.38997200
C        0.50139900      -0.21430900      -1.33037900
C        1.44733300      -0.17119500      -0.17818600
C        1.15790600      -0.75448600       1.17149200
N        1.22183100       0.68961200       0.99567500
H       -2.67498500       0.78246400       1.40652400
H       -0.96080100       1.34249600       0.95586000
H       -2.78565700      -0.61980600      -0.54315200
H       -1.27353100      -0.36460700      -2.38381100
H        1.01339600      -0.35300700      -2.28481300
H        2.49623100      -0.23483800      -0.49592100
H        1.97500200      -1.23414700       1.71642400
H        0.16650500      -1.15723400       1.37669700
H        2.11164700       1.05922300       1.33860200
