19
Properties=species:S:1:pos:R:3 pbc="F F F"
C       -1.89895900       0.75367100       1.28200800
C       -0.38914100       0.63767600       1.22940900
C        0.40311600       1.39816600       0.18440100
C        0.34790500      -0.11664100       0.15848400
N        1.53447000      -0.86655600       0.57738500
C       -0.38906100      -0.81671900      -0.98051300
N        0.49552700      -0.97350200      -2.14334600
H       -2.19895100       1.60341100       1.89499300
H       -2.34829300      -0.13920600       1.71691700
H       -2.32728400       0.89544400       0.29230900
H        0.07766800       0.60512900       2.21512600
H        1.32047700       1.88226900       0.50508300
H       -0.16362400       1.94909100      -0.55991000
H        2.13185400      -0.30274200       1.17627100
H        2.06027300      -1.15963500      -0.24434500
H       -1.30733900      -0.25286100      -1.23990500
H       -0.71307100      -1.81641100      -0.65718100
H        0.80215200      -0.06529800      -2.48329100
H        0.01300500      -1.45570200      -2.89708300
