20
Properties=species:S:1:pos:R:3 pbc="F F F"
C       -1.35406700       2.55568200       0.58906400
C       -1.83399600       1.18182200       1.04185100
C       -1.21971600       0.01897800       0.25002900
C        0.28078800      -0.17673800       0.50629500
C        0.84684000      -1.36369400      -0.26223700
C        2.28776900      -1.43595500      -0.63683400
N        1.27102800      -1.13806900      -1.64641800
H       -1.84579900       3.34182000       1.15865700
H       -1.57286700       2.71683700      -0.46461400
H       -0.28054600       2.66682100       0.72600300
H       -2.92411700       1.13614500       0.94291100
H       -1.61779600       1.05275100       2.10812500
H       -1.38674800       0.17539700      -0.82018300
H       -1.74915400      -0.90479500       0.51210500
H        0.44930500      -0.32378700       1.58109700
H        0.82856100       0.72700400       0.22578200
H        0.34317800      -2.32114200      -0.06932900
H        2.77355800      -2.41287400      -0.68873200
H        2.95481500      -0.60819700      -0.39144600
H        1.08470800      -1.96006100      -2.22446000
