18
Properties=species:S:1:pos:R:3 pbc="F F F"
C        0.71532300      -2.35416600       0.59509600
C       -0.23656000      -1.19941200       0.88569900
C        0.47912400       0.14147300       0.96291200
N       -0.33526400       1.35438600       0.91791600
C        0.57607100       1.09271900      -0.20456200
C       -0.00185200       0.79976300      -1.54645800
C       -1.30670400       0.69945400      -1.81113600
H        0.18100400      -3.30142700       0.57426800
H        1.49098900      -2.42501700       1.35580100
H        1.20610300      -2.22640100      -0.36769800
H       -0.75266700      -1.38572200       1.83540300
H       -1.01190000      -1.15479400       0.11592900
H        1.32841800       0.16446800       1.66172500
H        0.04495200       2.07769400       1.53248200
H        1.48939100       1.70439300      -0.23173500
H        0.72350900       0.65934000      -2.34936100
H       -2.04361000       0.85229600      -1.03177400
H       -1.66174700       0.47548000      -2.80975900
