19
Properties=species:S:1:pos:R:3 pbc="F F F"
C       -2.15893200      -0.01142800      -0.34468500
C       -0.63736400       0.01897600      -0.41931900
C        0.15872400      -1.10623600       0.32396200
N        0.80428800      -2.15202200      -0.47195500
C        1.09558600      -0.04245700       0.92792400
C        0.11261800       1.06371200       0.44711600
N        0.65811300       2.21896300      -0.26869100
H       -2.56063600      -0.85744600      -0.90103300
H       -2.58749400       0.89754000      -0.76332500
H       -2.50175200      -0.09825400       0.68547100
H       -0.31911100       0.09126900      -1.46817800
H       -0.46085900      -1.58809000       1.09828100
H        1.37487600      -1.74520900      -1.20925100
H        0.10912100      -2.75973700      -0.89852000
H        2.06050300       0.00142700       0.41783800
H        1.27852300      -0.10822700       2.00402400
H       -0.51522300       1.43066300       1.27540300
H        1.26725600       1.92008800      -1.02651600
H        1.19419500       2.81198000       0.36033900
