18
Properties=species:S:1:pos:R:3 pbc="F F F"
C        1.08731200      -2.78367600       0.95439700
C        0.60092600      -2.10629200      -0.32510900
C        0.04342300      -0.72836400      -0.08211100
C        0.44410700       0.36985800      -0.73921400
C       -0.09240100       1.74809800      -0.53411300
C       -1.55179400       1.99173700      -0.29728800
N       -0.59465800       2.16384800       0.78578100
H        1.45559600      -3.78542400       0.74267000
H        0.28261000      -2.86685500       1.68205000
H        1.89459600      -2.21791600       1.41373000
H       -0.17750400      -2.73468900      -0.78063600
H        1.41897400      -2.05353200      -1.05069000
H       -0.73744000      -0.64986200       0.67594800
H        1.22909700       0.27645200      -1.49035500
H        0.46223000       2.53285400      -1.06009700
H       -2.22158300       1.13035300      -0.24744800
H       -2.01180800       2.90999400      -0.66787000
H       -0.62160400       1.36353000       1.42286100
