17
Properties=species:S:1:pos:R:3 pbc="F F F"
C       -0.57130900      -2.17291400       1.47448900
C       -0.38000100      -0.66899900       1.60105400
C       -0.02959000      -0.00478800       0.29980000
N        0.27198700      -0.62991400      -0.80362700
C        0.56278800       0.38818700      -1.82617900
C        0.25661100       1.75367800      -1.16884100
N        0.05182600       1.39427900       0.23333100
H       -0.82829100      -2.61306900       2.43584100
H        0.33821300      -2.64580900       1.11378000
H       -1.36682400      -2.40323000       0.77014900
H        0.41019900      -0.45467400       2.33308000
H       -1.28770700      -0.20596600       2.01056500
H       -0.03931200       0.21014800      -2.73142600
H        1.61737500       0.31604000      -2.14049500
H       -0.64365100       2.23558900      -1.59320900
H        1.08026700       2.47912600      -1.28474800
H       -0.57795000       1.96030700       0.79660600
