18
Properties=species:S:1:pos:R:3 pbc="F F F"
C       -1.36858700      -0.02654500      -2.01785400
C       -0.84979400      -0.04182000      -0.57595500
C       -0.10073900       1.24758100      -0.16291700
C        0.98006200       0.77124900       0.79359400
C        1.07424300      -0.71031400       0.65690400
N        0.11712500      -1.15081700      -0.35212000
C        0.53843700      -0.11151900       1.93661700
H       -2.08081300       0.78320600      -2.16514000
H       -1.87048600      -0.96194400      -2.25872000
H       -0.55438300       0.10707200      -2.72695800
H       -1.72681600      -0.16901600       0.09875500
H       -0.78019300       1.98404900       0.28098000
H        0.36013700       1.72871200      -1.03322300
H        1.86596000       1.39063600       0.93394800
H        2.03061500      -1.24197200       0.67327500
H       -0.36674000      -2.01163600      -0.08374600
H        1.18299100      -0.13606000       2.80986500
H       -0.52187700      -0.18911400       2.15348200
