19
Properties=species:S:1:pos:R:3 pbc="F F F"
C        2.11287800       0.24480300      -1.17690300
C        1.32477000      -0.18965300       0.05042400
C       -0.16001200       0.20344200       0.03750900
C       -0.92448600      -0.14994700       1.32981100
N       -1.05316500      -1.59399400       1.57351500
C       -0.94090100       0.25248400      -1.23864900
N       -0.49754700       1.49134500      -0.59218600
H        3.17308100       0.04006400      -1.04027600
H        1.99103900       1.31036300      -1.35477400
H        1.78464400      -0.28431500      -2.06955800
H        1.78804600       0.24378800       0.94589200
H        1.40483500      -1.27767800       0.17280800
H       -0.41746800       0.30012700       2.19566000
H       -1.93245000       0.28752100       1.28918700
H       -0.13791100      -2.02177300       1.68942000
H       -1.52111400      -2.04830000       0.79306200
H       -2.01111600       0.03390200      -1.20638800
H       -0.46220200       0.02858900      -2.19251700
H       -1.27789700       1.93948000      -0.10496600
