18
Properties=species:S:1:pos:R:3 pbc="F F F"
C       -0.90643400       1.47683500       1.20931900
C       -1.09488600       1.18387400      -0.26370400
N       -0.11292600       1.69192400      -1.23689200
C       -0.22338800       0.24054600      -1.03136000
C        0.94908100      -0.51544700      -0.40993800
C        0.56267400      -1.89425100       0.05277000
C        0.79813900      -2.37841800       1.27248400
H       -1.30771400       2.45885500       1.45877000
H        0.14404500       1.46756000       1.49200900
H       -1.42714100       0.74391500       1.82497000
H       -2.13199400       1.28183600      -0.60796100
H        0.70910700       2.05673800      -0.74842100
H       -0.68792500      -0.28376400      -1.87659900
H        1.73969700      -0.60946800      -1.16945400
H        1.38313300       0.05425400       0.41687300
H        0.06282300      -2.52314600      -0.68518400
H        1.29083800      -1.78388800       2.03297200
H        0.50448700      -3.38519200       1.54284600
