16
Properties=species:S:1:pos:R:3 pbc="F F F"
C        1.79587500      -0.61572400       0.13713700
C        1.76415900       0.72123800       0.17215300
C        0.37010100       1.26852400       0.06613500
C       -0.50037600       0.00475700      -0.02441700
C        0.42722300      -1.22114000       0.00179200
N       -1.66825600       0.02854600      -0.91238600
C       -1.88439900      -0.05261100       0.53542100
H        2.69840900      -1.21718800       0.19367900
H        2.63921400       1.35866900       0.26078400
H        0.25279900       1.91074700      -0.81600000
H        0.11253600       1.89419300       0.93236700
H        0.34101700      -1.82461200      -0.91292300
H        0.20102000      -1.90330200       0.83372100
H       -1.81470400      -0.88400100      -1.35104200
H       -2.25806500      -1.00045200       0.92980200
H       -2.32992900       0.83586400       0.98699200
