20
Properties=species:S:1:pos:R:3 pbc="F F F"
C       -2.98960000       0.32421500       0.24520200
C       -1.50719600       0.12073600       0.17782100
C       -0.62220000       1.12313000       0.24635100
C        0.88333000       1.06107300       0.20013900
C        1.60050100      -0.27732400      -0.14784900
N        1.42809600      -1.32451400       0.87655300
C        1.23400800      -0.81498800      -1.53425100
H       -3.47589200      -0.05639300      -0.65468900
H       -3.24420800       1.37642400       0.35021500
H       -3.42037600      -0.21745400       1.08929900
H       -1.17795500      -0.90967600       0.06061700
H       -1.01302600       2.13604100       0.36665200
H        1.26367600       1.40361900       1.17420700
H        1.22547300       1.82201900      -0.51457300
H        2.68094800      -0.03092700      -0.16828000
H        0.46762800      -1.65547700       0.90253500
H        1.66446600      -0.96079200       1.79639500
H        0.19362800      -1.12587400      -1.58745000
H        1.85103100      -1.67641500      -1.77985800
H        1.39487400      -0.05454800      -2.29542400
