19
Properties=species:S:1:pos:R:3 pbc="F F F"
N       -0.22272700      -2.05502900       1.79331600
C       -0.09063600      -0.59507900       1.73883400
C        0.33081500      -0.12656000       0.35267500
C       -0.02047800       1.26625600      -0.12968400
C       -0.70431300       0.07711200      -0.73589700
C       -0.43152900      -0.38146900      -2.15265200
N        0.91955000       2.06612900      -0.90278800
H       -0.42374900      -2.36293200       2.74102600
H        0.63363200      -2.50409000       1.47970700
H        0.64124900      -0.22465200       2.49201700
H       -1.05717500      -0.14215700       2.00657100
H        1.29015800      -0.52022600       0.01109800
H       -0.62928800       1.87382300       0.55011500
H       -1.73985400      -0.06909700      -0.42247100
H        0.62866000      -0.33383200      -2.39399700
H       -0.96701600       0.23302400      -2.87636200
H       -0.75535700      -1.41238900      -2.29212700
H        1.32915600       1.52350200      -1.65773800
H        1.66866800       2.41975800      -0.31118400
