19
Properties=species:S:1:pos:R:3 pbc="F F F"
N       -0.63908000      -0.18694500      -1.81551500
C       -0.85891800      -0.36569100      -0.36860300
C       -0.16346600      -1.63665200       0.20522700
C        0.94434300      -1.11569500       1.15325300
N        1.08480300       0.33183700       0.91359500
C       -0.24777700       0.80852700       0.46948900
C       -0.15761800       2.15173300      -0.24466000
H       -1.05122700      -0.96045800      -2.33196100
H        0.35647700      -0.16282500      -2.02313200
H       -1.95009500      -0.41826200      -0.21121300
H        0.25862700      -2.24482300      -0.59985400
H       -0.87130000      -2.27628100       0.73979900
H        1.90697900      -1.61564500       0.99411600
H        0.65968800      -1.29468600       2.20292100
H        1.75614900       0.48384000       0.15542300
H       -0.87973500       0.93255400       1.37197400
H        0.49620300       2.09927100      -1.11317700
H        0.23783100       2.91432900       0.42393800
H       -1.13903700       2.47541400      -0.58363100
