20
Properties=species:S:1:pos:R:3 pbc="F F F"
C       -2.42823800      -0.47946200       0.00646200
C       -1.02916500      -0.23719500      -0.54796200
C        0.02414100      -1.32250000      -0.24203400
N        0.73076600      -0.40027800       0.67055800
C       -0.13313500       0.74792100       0.25552400
C        0.53199600       1.85295500      -0.56579900
C        2.18168600      -0.30770000       0.57290100
H       -2.91624500      -1.30258900      -0.51409000
H       -3.05227400       0.40566500      -0.11000000
H       -2.39379900      -0.72769700       1.06550700
H       -1.09564500       0.01086300      -1.61713400
H        0.62016500      -1.62280200      -1.12252000
H       -0.33942300      -2.24218700       0.24749600
H       -0.64025200       1.20887800       1.12895100
H        1.02798800       1.45342600      -1.44827800
H        1.27367300       2.38816500       0.02483100
H       -0.21220300       2.57458500      -0.89915200
H        2.63205000      -1.24602500       0.91289600
H        2.54835800       0.49651400       1.21644200
H        2.54853300      -0.11897100      -0.45341100
