20
Properties=species:S:1:pos:R:3 pbc="F F F"
C       -2.85280600      -1.93882500       0.60615900
C       -1.36222700      -1.81111400       0.63954800
C       -0.66251700      -0.95197600      -0.11185200
C        0.83948600      -0.84150000      -0.08310700
C        1.35582600       0.56549200       0.26430600
C        1.05160900       1.61555000      -0.80824400
N        1.64884700       2.90601200      -0.45211100
H       -3.15079500      -2.95330700       0.33515000
H       -3.29679800      -1.25098900      -0.10996100
H       -3.28405200      -1.73472700       1.58797700
H       -0.83622500      -2.47253900       1.32859600
H       -1.19210200      -0.29141500      -0.79874400
H        1.24135000      -1.13132400      -1.06440200
H        1.24251900      -1.55919500       0.63948200
H        2.43941600       0.51472900       0.41310000
H        0.93063000       0.88786400       1.22100300
H       -0.04596200       1.69709500      -0.95354800
H        1.46546300       1.29236600      -1.77498600
H        1.30408400       3.22337400       0.45029400
H        1.42431800       3.61022300      -1.15003800
