20
Properties=species:S:1:pos:R:3 pbc="F F F"
C       -1.16628900       0.75070200      -1.85457000
C        0.03821500      -0.03549500      -1.34605400
C        0.32707700       0.18104100       0.14477300
C       -0.73576200      -0.31073300       1.13550200
C       -0.98551400      -1.81385600       1.06677600
N        1.72050700      -0.00396600       0.58208500
C        1.17151300       1.35569200       0.52971600
H       -1.31859300       0.57605900      -2.91760900
H       -1.02724800       1.82002300      -1.70739300
H       -2.07640500       0.45848900      -1.33512900
H        0.92417800       0.24957100      -1.92399700
H       -0.12150900      -1.10248700      -1.53842000
H       -1.67732300       0.22332100       0.95922900
H       -0.41604900      -0.04687700       2.14782000
H       -1.38071400      -2.10787800       0.09621000
H       -1.70503700      -2.11863500       1.82424100
H       -0.06426200      -2.36660600       1.23538300
H        2.33493500      -0.17021900      -0.21867400
H        1.55424200       2.01348300      -0.25349200
H        1.03479900       1.83541000       1.50037500
