17
Properties=species:S:1:pos:R:3 pbc="F F F"
C       -0.07013300       0.26805600       2.50522000
C       -0.58265200       0.26475600       1.06208600
N        0.00553200       1.37856300       0.26380100
N        0.26215300       0.91870400      -1.04673500
C        0.18874500      -0.37890800      -1.08105500
C       -0.21136800      -0.98939200       0.24907600
C        0.49318100      -1.17659100      -2.30932700
H       -0.30955400       1.20803400       2.99938600
H        1.00932300       0.13811300       2.53791300
H       -0.52442700      -0.53662900       3.07997300
H       -1.68867900       0.37718200       1.08841100
H       -0.57251700       2.22600700       0.24574500
H        0.62400400      -1.54134800       0.70070300
H       -1.03864400      -1.70275100       0.15691400
H        0.72278700      -0.52561900      -3.14888700
H       -0.34970800      -1.81265400      -2.58721000
H        1.34698000      -1.83873000      -2.14840400
