17
Properties=species:S:1:pos:R:3 pbc="F F F"
C        1.72312500      -2.09795400      -0.00605400
C        0.61211900      -1.35649000       0.72589900
C       -0.21394500      -0.43478200      -0.19490500
C       -1.39449200       0.26341300       0.51092300
N       -1.35846900       1.64654200      -0.00733000
N       -0.10608600       1.88908600      -0.59653700
C        0.53438300       0.77112900      -0.74298400
H        2.25864400      -2.75824000       0.67303000
H        2.44432800      -1.40554300      -0.43505000
H        1.32117500      -2.70372300      -0.81601400
H        1.03999800      -0.76954200       1.54530900
H       -0.06136500      -2.08539200       1.19188700
H       -0.58761100      -1.04618700      -1.03647100
H       -1.27957400       0.24948900       1.61071400
H       -2.36315700      -0.21392100       0.29217500
H       -1.59296300       2.36906300       0.68108900
H        1.50525900       0.74270600      -1.23686900
