19
Properties=species:S:1:pos:R:3 pbc="F F F"
N       -2.19224900      -1.05088200       1.42342100
C       -0.76068500      -0.91611000       1.13347500
C       -0.54020500      -0.21646700      -0.20259600
C       -0.41368000       1.29010800      -0.27173100
C        0.77506900       0.43407500      -0.59176900
C        1.96729500       0.40970000       0.35009600
N        1.18220500       0.37044500      -1.99987800
H       -2.33740500      -1.56787800       2.28645300
H       -2.66720400      -1.53816000       0.66811300
H       -0.25359800      -1.90772300       1.12082000
H       -0.29196200      -0.34345500       1.94616900
H       -1.09908400      -0.66349900      -1.02791100
H       -0.41864800       1.83165900       0.66875900
H       -0.91772700       1.79978100      -1.08710500
H        1.66250400       0.54004300       1.38531200
H        2.66627100       1.20706600       0.10197300
H        2.50872700      -0.53389200       0.27320800
H        0.37305100       0.42828500      -2.61237300
H        1.67861500      -0.49701100      -2.19307400
