20
Properties=species:S:1:pos:R:3 pbc="F F F"
C        1.59934900      -1.70228100      -0.87824900
C        0.75926300      -1.31268300       0.33191800
C       -0.53216400      -0.57462500      -0.04693300
C       -1.40588400      -0.10956100       1.14039300
C       -1.25335700       1.35610000       0.71027500
C       -0.43094800       0.90164900      -0.52994600
N        0.91152300       1.46369500      -0.69364400
H        2.49948300      -2.23197000      -0.57125900
H        1.89882700      -0.82192800      -1.44158100
H        1.03973200      -2.35339900      -1.54750900
H        1.35628100      -0.69623800       1.01282300
H        0.49282100      -2.21523900       0.89515500
H       -1.09510900      -1.19767500      -0.75833600
H       -0.99371800      -0.33532100       2.12731100
H       -2.43383000      -0.48044500       1.11461800
H       -0.68829300       1.96555100       1.41951500
H       -2.18967800       1.87519800       0.48963600
H       -0.98261300       1.06173300      -1.47217600
H        1.44356900       1.38502300       0.16968900
H        0.85431700       2.44725000      -0.94713300
