20
Properties=species:S:1:pos:R:3 pbc="F F F"
C       -2.96717100       0.29000800       1.34654000
C       -1.44784200       0.28539200       1.23349900
C       -0.93295100      -0.79459500       0.27300600
C        0.59860800      -0.87809100       0.20236800
C        1.25414200       0.35053800      -0.41570500
C        1.47931900       0.45972500      -1.88484200
N        2.59516900       0.17644900      -0.98066100
H       -3.30228900       1.06071400       2.03748300
H       -3.33530900      -0.66795700       1.70860300
H       -3.43165300       0.48055600       0.38111200
H       -1.00952200       0.12877300       2.22488400
H       -1.10636400       1.27100200       0.90005500
H       -1.33855900      -0.61496900      -0.72863600
H       -1.32510800      -1.76725800       0.58980600
H        0.88249200      -1.75884600      -0.38147900
H        0.99992700      -1.03349700       1.21133300
H        1.08477300       1.29269400       0.12245500
H        1.45331600       1.44617200      -2.35297500
H        1.19331400      -0.36351500      -2.54101100
H        3.16416600       1.01312400      -0.83619400
