18
Properties=species:S:1:pos:R:3 pbc="F F F"
C        1.84041200       2.24842200      -0.76946800
C        1.01399300       1.20440700      -0.84009400
C        1.41295000      -0.21139200      -0.52609700
C        0.51091800      -0.88228500       0.52717100
C       -0.92913800      -1.06191300       0.06352300
C       -2.02810900      -1.24354200       1.05411100
N       -1.90756700       0.00455700       0.29872600
H        1.50622400       3.24791800      -1.01960000
H        2.87361300       2.13241100      -0.46222900
H       -0.01878000       1.35613300      -1.15199800
H        2.45235500      -0.23741600      -0.18357700
H        1.37194600      -0.80533900      -1.44956500
H        0.52918100      -0.30053900       1.45444300
H        0.93728600      -1.86424200       0.76996100
H       -1.03902800      -1.55523900      -0.91018600
H       -1.78799300      -1.20736500       2.11877200
H       -2.89281800      -1.85941700       0.80212100
H       -1.50518200       0.73900300       0.88590300
