14
Properties=species:S:1:pos:R:3 pbc="F F F"
C       -1.60637800      -0.53689000      -0.32438500
C       -0.31641900      -0.20105400      -0.51424700
C        0.28739900      -0.30728400      -1.85116500
C        1.55400400      -0.00610300      -2.16877200
C        0.56708200       0.29435300       0.61710600
C       -0.10136700       0.37579300       1.91454400
N       -0.60335900       0.44940200       2.94713800
H       -2.21238000      -0.88783900      -1.15152500
H       -2.07337000      -0.46820000       0.65001300
H       -0.37964700      -0.66646000      -2.63444600
H        2.26527100       0.35582600      -1.43540300
H        1.91113300      -0.11725800      -3.18467700
H        0.96486900       1.28811000       0.36893000
H        1.44171400      -0.36287500       0.71864600
