20
Properties=species:S:1:pos:R:3 pbc="F F F"
C       -2.19478900       0.86622400      -0.62169800
C       -0.67381900       0.95742500      -0.43354400
C       -0.09748800      -0.39368600       0.00994900
N       -0.24000800      -0.74794800       1.42844500
C        1.10499400      -0.48405700       0.89368500
C        2.08334100      -1.63369100       0.77300200
C        0.01268300       1.45324300      -1.71413300
H       -2.67565100       0.54646800       0.29970400
H       -2.45060500       0.15046300      -1.40124300
H       -2.61011800       1.83147000      -0.90543000
H       -0.47311300       1.68595100       0.36667700
H       -0.24948400      -1.21723000      -0.70073000
H       -0.39013500      -1.75417300       1.53307500
H        1.54266700       0.45399900       1.25559100
H        1.59109800      -2.53261900       0.40655400
H        2.53310500      -1.86869300       1.73764300
H        2.89315600      -1.39092700       0.08510500
H       -0.14584600       0.75925400      -2.53788200
H        1.08616400       1.55686800      -1.56666400
H       -0.38071300       2.42205500      -2.01508300
