20
Properties=species:S:1:pos:R:3 pbc="F F F"
C       -1.23167800       1.88150400       1.28517100
C        0.17738800       1.31825700       1.12834100
C        0.40840300       0.68680600      -0.23946500
N        1.53013800      -0.25235800      -0.41999600
C        0.14759600      -0.76020000      -0.55281900
C       -0.36395200      -1.71624000       0.51558300
C       -0.27119000      -1.12929600      -1.97093300
H       -1.36021200       2.34057600       2.26316500
H       -1.98126200       1.09958700       1.18080300
H       -1.43471300       2.63903700       0.53051600
H        0.37378300       0.58943400       1.92125700
H        0.90469000       2.12627000       1.27327800
H        0.30361800       1.39256600      -1.07317100
H        1.91579100      -0.51643500       0.49055700
H       -0.00074400      -1.45290400       1.50621100
H       -0.03991000      -2.73497100       0.30388700
H       -1.45336700      -1.72221200       0.54588900
H        0.15653400      -0.43945600      -2.69385400
H       -1.35574900      -1.10507600      -2.07669300
H        0.06116600      -2.13489200      -2.22713500
