14
Properties=species:S:1:pos:R:3 pbc="F F F"
C       -2.98751600       0.01393400      -1.37717700
C       -2.02538100       0.70295700      -0.76523200
C       -1.28759800       0.22186600       0.46012900
C        0.20253800       0.36974700       0.33413800
C        1.07723700      -0.61493400       0.60157500
C        2.49907000      -0.44757000       0.49711300
N        3.64649100      -0.33789500       0.42480000
H       -3.49747500       0.41507500      -2.24438800
H       -3.29132300      -0.96687200      -1.02982300
H       -1.73965700       1.68542300      -1.14112400
H       -1.55416200      -0.81425900       0.68826600
H       -1.62114800       0.82741500       1.31945800
H        0.57267300       1.34315100       0.01306500
H        0.73556000      -1.60067500       0.91766500
