20
Properties=species:S:1:pos:R:3 pbc="F F F"
C       -0.03235000      -1.53508200      -1.74691100
C        0.02432400      -0.05951800      -1.36168500
C        0.31178200       0.17506000       0.12689700
C       -0.76014400      -0.28963400       1.12018900
C       -2.05657300       0.50918900       1.03336100
N        1.69993900      -0.02397000       0.57558500
C        1.17102900       1.34283500       0.49882200
H       -0.19074800      -1.64642400      -2.81763000
H       -0.84415200      -2.04659700      -1.23438600
H        0.89573500      -2.04110100      -1.48940700
H       -0.92294000       0.42118300      -1.63283600
H        0.80025800       0.43598700      -1.95566000
H       -0.35307200      -0.21082800       2.13203600
H       -0.97753800      -1.35117500       0.95630800
H       -1.87877500       1.56688800       1.21947300
H       -2.77601700       0.15740400       1.76983200
H       -2.51522100       0.41691800       0.05060900
H        2.31211800      -0.21352100      -0.22170000
H        1.56913100       1.98377700      -0.29097600
H        1.03323700       1.83818300       1.46119800
