15
Properties=species:S:1:pos:R:3 pbc="F F F"
N       -2.70326400       0.04450700       0.56397700
C       -1.55288000       0.02799900       0.63929700
C       -0.10693100       0.01964100       0.77831100
C        0.75315600       0.70145600      -0.25704700
N        0.71805200      -0.75877000      -0.16850800
C        0.01507500      -1.47241500      -1.23958600
C        2.03093500       1.40809000       0.14017900
H        0.24187400      -0.01172000       1.81680700
H        0.21543900       1.14386200      -1.10618500
H        0.72247600      -1.71093900      -2.03871600
H       -0.81232100      -0.89201100      -1.67310800
H       -0.38650500      -2.41166400      -0.85139500
H        2.51844400       0.89717700       0.96706600
H        1.83029300       2.43476500       0.44436100
H        2.73065400       1.44174800      -0.69403800
