15
Properties=species:S:1:pos:R:3 pbc="F F F"
C       -0.73607100       2.18368000      -1.26737400
C       -0.92878400       0.68509100      -1.07811500
C       -0.39714100       0.17606300       0.27985700
C        1.09870800       0.20377000       0.46440600
N        1.59001500      -0.95113000       0.78519700
N        0.49520300      -1.91412900       0.83702400
C       -0.60363200      -1.29335300       0.54534700
H       -1.14123800       2.50279200      -2.22522600
H        0.31792000       2.45260900      -1.24490800
H       -1.24071000       2.74764200      -0.48497000
H       -0.43201100       0.14349500      -1.88837000
H       -1.99477900       0.44134400      -1.14975200
H       -0.87749700       0.76728000       1.07981900
H        1.73627500       1.08482600       0.37006800
H       -1.56296800      -1.81468400       0.52306000
