20
Properties=species:S:1:pos:R:3 pbc="F F F"
C       -1.75674900       0.18851500       1.99256500
C       -0.33142200       0.62703900       1.67539300
C        0.48133900      -0.39436100       0.85321700
C        0.36742000      -0.23189900      -0.66788500
C       -0.99802100      -0.49134600      -1.28991100
C        1.58076100      -0.51313400      -1.50090200
N        1.16085600       0.86801900      -1.24059800
H       -2.25487700       0.93092400       2.61293100
H       -1.76309100      -0.75593700       2.53341600
H       -2.35116200       0.05769400       1.09156300
H        0.19113500       0.80607700       2.62124100
H       -0.34766000       1.58699900       1.15131500
H        0.18853300      -1.41237900       1.13621000
H        1.53717900      -0.29191800       1.12049800
H       -0.94057400      -0.47452400      -2.37687900
H       -1.72135900       0.26441600      -0.98575600
H       -1.38978400      -1.46259000      -0.98920600
H        1.45268600      -0.88621000      -2.51924200
H        2.51723600      -0.80664000      -1.02361800
H        0.69578600       1.25907700      -2.06314300
