20
Properties=species:S:1:pos:R:3 pbc="F F F"
C       -0.31493300       1.34796700       2.01409200
C       -0.67359500       0.97510700       0.57777100
C        0.39830000       0.12321000      -0.11367700
C        1.73987900       0.81734500      -0.32057600
N        0.48591700      -1.30496700       0.25492700
C        0.00788500      -0.94966600      -1.09430000
C       -1.42015500      -1.26550200      -1.48975600
H       -1.12159800       1.91349700       2.47629800
H        0.58481600       1.95813500       2.05223700
H       -0.14014200       0.45790100       2.61477600
H       -0.83614700       1.89130300      -0.00262600
H       -1.62791100       0.43958500       0.58150200
H        2.18303100       1.11482200       0.62891600
H        1.62498100       1.71625800      -0.92633200
H        2.44202000       0.15672500      -0.82299400
H       -0.30707200      -1.56180600       0.84880200
H        0.73968700      -1.17981200      -1.87878200
H       -2.10835000      -1.16667300      -0.65290500
H       -1.49554500      -2.28893100      -1.85664000
H       -1.76347400      -0.60700100      -2.28805600
