19
Properties=species:S:1:pos:R:3 pbc="F F F"
C       -1.09995900       1.39975700       1.21163100
C        0.38985200       1.12254300       1.25378900
C        1.31938200       1.69665500       0.23218500
N        1.06767800       0.25457400       0.27860300
C        0.30746900      -0.33750800      -0.83417100
C       -0.33453100      -1.66221200      -0.41347800
N       -1.03527500      -2.28101000      -1.54251500
H       -1.33909100       2.26247000       1.83324700
H       -1.66989100       0.55286700       1.59420300
H       -1.44730400       1.61306500       0.20364900
H        0.78406400       1.00401700       2.27265100
H        2.32641000       2.01087200       0.51686300
H        0.88499300       2.25395600      -0.60221200
H        1.00670300      -0.51975900      -1.66436800
H       -0.46701400       0.34934000      -1.23092100
H       -1.01247900      -1.49049600       0.44923200
H        0.44236400      -2.35410200      -0.05994700
H       -1.75409700      -1.65995400      -1.90564000
H       -1.47475600      -3.15263700      -1.25910800
