12
Properties=species:S:1:pos:R:3 pbc="F F F"
C       -2.27830600       0.55774200       1.08983300
C       -1.07202700       0.54089100       1.01099100
C        0.37854700       0.47058100       1.00637400
N        1.10992900       1.17917800      -0.04697600
C        1.13690700      -0.28554800      -0.06037100
C        0.45505500      -0.98133000      -1.13743900
C       -0.07996500      -1.63303500      -2.00382600
H       -3.33961300       0.60242500       1.10766200
H        0.83273400       0.48351900       2.00750600
H        1.99046400       1.55729200       0.31131900
H        2.07775900      -0.75800000       0.25616200
H       -0.57211800      -2.15529400      -2.78718800
