16
Properties=species:S:1:pos:R:3 pbc="F F F"
C       -1.76043400      -0.11583400       0.31536000
C       -0.26064900      -0.01549700      -0.01607000
C        0.49455700       1.09309800       0.77581700
C        1.15467500      -0.03675100       1.57325200
N        0.56741100      -1.05564800       0.67769500
C       -0.05508100       0.01512300      -1.48396100
C        0.10359800       0.08665400      -2.67984900
H       -1.91680600      -0.11539200       1.39264400
H       -2.18513500      -1.03294300      -0.08833600
H       -2.30949400       0.72313700      -0.10723700
H       -0.13994600       1.77448100       1.34806600
H        1.18705000       1.68299100       0.17294600
H        0.80778500      -0.11318500       2.61653200
H        2.25567200      -0.04306800       1.58361500
H        0.01152500      -1.76558200       1.16130300
H        0.25746900       0.11833700      -3.73069000
