20
Properties=species:S:1:pos:R:3 pbc="F F F"
C       -0.62557800       0.97014000      -2.45197800
C       -1.14017500       1.16565000      -1.02183800
N       -0.67405400       0.22338700       0.01688300
C       -0.41160200      -1.17475900      -0.32588700
C        0.71247000      -0.24683300       0.01388500
C        1.47147000      -0.28981300       1.33920000
C        0.63031400      -0.70076700       2.53946900
H       -1.05099800       1.73387700      -3.09977600
H       -0.91028200       0.00097800      -2.85637400
H        0.45760500       1.05543500      -2.51034000
H       -2.24103700       1.12497300      -1.03537300
H       -0.87903100       2.18150800      -0.68591400
H       -0.53354600      -1.48544100      -1.36617400
H       -0.76283500      -1.90579700       0.40539300
H        1.33716700       0.07544700      -0.83146100
H        1.90405300       0.70109400       1.52626100
H        2.32505200      -0.97225700       1.23805800
H       -0.24788600      -0.06602700       2.63125600
H        1.20786900      -0.61824200       3.45809200
H        0.29085300      -1.73096800       2.45106800
