19
Properties=species:S:1:pos:R:3 pbc="F F F"
C       -1.77497800       0.29606200       1.06108000
C       -0.26873400       0.14816500       1.02685100
C        0.59477700       0.92248800       0.05396800
C        0.45250600      -0.57458200      -0.11400300
C        1.62737600      -1.47400800       0.24214500
N       -0.31286600      -1.05801700      -1.26106800
N       -0.00784900       1.85741900      -0.88407100
H       -2.07191800       1.23814200       1.52289500
H       -2.22584600      -0.50883900       1.64085300
H       -2.20898700       0.26323400       0.06310500
H        0.17463900       0.01477700       2.01570800
H        1.55414600       1.27115600       0.45997000
H        2.19261000      -1.06723000       1.07823100
H        2.30534800      -1.58382800      -0.60346000
H        1.28915600      -2.47267400       0.52064000
H       -0.90967700      -0.32319600      -1.63174800
H       -0.89206500      -1.85537300      -1.00582900
H       -1.02122600       1.85877100      -0.82259400
H        0.27314700       1.66049300      -1.84204100
