18
Properties=species:S:1:pos:R:3 pbc="F F F"
C       -2.09008300       0.64071600       0.33776000
C       -0.67969000       0.27593500      -0.07836100
C       -0.39776300      -1.15853300      -0.54666200
N        1.04973400      -1.39023000      -0.34621200
C        1.53367400      -0.43376300       0.67543000
C        0.54166400       0.72594200       0.67627200
C        0.22846500       1.32340600      -0.66771000
H       -2.45944200      -0.03380900       1.11062200
H       -2.77958500       0.57885700      -0.50511200
H       -2.13295800       1.65554100       0.72816300
H       -0.65958200      -1.33665500      -1.59897700
H       -0.99134800      -1.87053900       0.05430300
H        1.54378900      -1.22265500      -1.22495000
H        2.56470300      -0.13363200       0.44117500
H        1.55887600      -0.91014000       1.67170000
H        0.46412700       1.36027300       1.55901200
H        0.85965500       1.05550000      -1.51088300
H       -0.13397900       2.34664200      -0.68194400
