20
Properties=species:S:1:pos:R:3 pbc="F F F"
C        1.80333000       1.22150800       1.14562400
C        1.13171100      -0.06047700       0.62674600
C       -0.37038200       0.18359800       0.39212900
C       -0.90183000       0.80661000      -0.87661200
C       -1.21767500      -0.62034800      -0.56647600
N       -2.58727400      -0.98453800      -0.22366400
C        1.87691300      -0.60127800      -0.59883300
H        2.84974700       1.04235200       1.38464600
H        1.30793500       1.58205300       2.04485900
H        1.76105200       2.01272900       0.40032600
H        1.21464900      -0.82094000       1.42363700
H       -0.88570600       0.51153900       1.29764000
H       -0.20021100       1.01508700      -1.67804900
H       -1.69588900       1.54032600      -0.77656000
H       -0.71748300      -1.38108800      -1.17262600
H       -3.07236300      -0.20050900       0.20404700
H       -2.60393100      -1.76977000       0.42386100
H        1.82705900       0.09361200      -1.43465400
H        1.46630300      -1.55435400      -0.92610200
H        2.92735600      -0.75694800      -0.36084900
