20
Properties=species:S:1:pos:R:3 pbc="F F F"
N       -0.80450900      -2.72117700      -0.36780500
C       -1.26522300      -1.33431500      -0.47018300
C       -0.42910700      -0.40883400       0.42124700
C        1.02581400      -0.16693300      -0.03403000
C        0.69833200       1.32047400      -0.28567300
C       -0.72488800       1.09737100       0.27087200
C        1.56193800       2.34918200       0.43538500
H       -1.38692800      -3.33662100      -0.92929900
H       -0.83289700      -3.03909800       0.59757200
H       -2.33764600      -1.23301100      -0.19247300
H       -1.18977000      -1.01503900      -1.51999200
H       -0.49864600      -0.75842000       1.46271600
H        1.33313100      -0.73098600      -0.91775000
H        1.76766800      -0.33267500       0.75129200
H        0.67990300       1.55661800      -1.35966500
H       -1.53673700       1.34750400      -0.41838200
H       -0.91702500       1.60789300       1.21789900
H        1.60763700       2.14555100       1.50350800
H        1.16129300       3.35306500       0.30325500
H        2.58038100       2.34179100       0.05024500
