20
Properties=species:S:1:pos:R:3 pbc="F F F"
C       -2.26190900      -0.64250600      -0.31346600
C       -0.73940300      -0.58746800      -0.34648000
C        0.02893100      -1.70729500       0.38637800
C        0.87938500      -0.65342400       1.10486800
C       -0.04297800       0.45938800       0.56491100
C        0.60239300       1.70007600      -0.09637800
N        1.58211600       1.41361100      -1.14919500
H       -2.63313300      -1.49333600      -0.88276700
H       -2.69408300       0.26029100      -0.74230700
H       -2.63062900      -0.73749300       0.70639100
H       -0.40179500      -0.49590200      -1.38966900
H        0.57510700      -2.40742700      -0.25196000
H       -0.59974600      -2.28846100       1.06509800
H        1.90312900      -0.59469500       0.72493400
H        0.92955200      -0.74200200       2.19335500
H       -0.72905300       0.80879600       1.35009600
H       -0.19181900       2.32947500      -0.52373500
H        1.09569700       2.30248700       0.68050900
H        1.15081200       0.88794600      -1.90572500
H        2.35263800       0.86243200      -0.77885500
