14
Properties=species:S:1:pos:R:3 pbc="F F F"
C       -3.28139200      -0.87509000      -1.05620000
C       -2.07424900      -0.85510100      -1.03204500
C       -0.61133600      -0.83302800      -1.00543000
C       -0.05959700       0.08138600       0.09849500
C        1.47508700       0.09258400       0.11197300
C        2.01775900       0.95950100       1.15801600
N        2.45202200       1.63933100       1.97805700
H       -4.34326400      -0.89506200      -1.08028900
H       -0.23912400      -0.50275300      -1.98447300
H       -0.23907900      -1.85642600      -0.86321500
H       -0.43205600      -0.25108200       1.07124900
H       -0.43209000       1.09901500      -0.04706000
H        1.86189800       0.43197000      -0.85693100
H        1.86193900      -0.92248200       0.26546200
