20
Properties=species:S:1:pos:R:3 pbc="F F F"
C        0.74438500       2.26124800       1.86342700
C       -0.16837000       1.06447500       1.61538500
C        0.05992300       0.42084100       0.25257800
C        1.12129900      -0.62552800       0.07340700
C       -0.32754600      -1.01357800       0.02174400
C       -0.98068200      -1.48502100      -1.27375000
N       -0.38730300      -0.88222600      -2.46743600
H        0.54287000       2.70908700       2.83452900
H        0.59878300       3.02748500       1.10444700
H        1.79115700       1.96600800       1.83968900
H       -1.21399200       1.38730700       1.69725000
H       -0.01483600       0.31835700       2.40197100
H       -0.07700800       1.10351600      -0.58830900
H        1.69586300      -0.92581000       0.94464900
H        1.67308900      -0.62990600      -0.86060300
H       -0.70178000      -1.54157800       0.90180400
H       -2.07630800      -1.29338100      -1.21619100
H       -0.87574600      -2.57900900      -1.35176900
H       -0.48055600       0.13004800      -2.44666100
H       -0.84446600      -1.23116300      -3.30550000
