18
Properties=species:S:1:pos:R:3 pbc="F F F"
C       -0.81340900      -1.95403000       1.68214900
C       -0.83013800      -0.42967200       1.72626700
C       -0.80146600       0.20000100       0.33932400
N       -0.41691600       1.60259100       0.20322600
C        0.50559400       0.56919100      -0.31191900
C        0.67341700       0.47902300      -1.78443100
C        1.77250700       0.01288300      -2.38427100
H       -0.85734800      -2.37142700       2.68581700
H        0.09158200      -2.32340700       1.20399300
H       -1.66451200      -2.33684400       1.12244100
H        0.02305600      -0.06765800       2.31058000
H       -1.72995600      -0.09419600       2.25644600
H       -1.62434700      -0.09945000      -0.32075000
H       -0.07068000       1.96995800       1.09336300
H        1.41124800       0.39700400       0.28249300
H       -0.17472500       0.80549100      -2.38552100
H        2.63187500      -0.31655300      -1.81118900
H        1.84318500      -0.04543300      -3.46297400
