20
Properties=species:S:1:pos:R:3 pbc="F F F"
C       -1.09136500       0.67723200      -2.05810600
C       -1.34565200       1.01211600      -0.59321600
C       -0.57754800       0.15932500       0.42927400
C       -0.61557400      -1.37810400       0.32254600
N        0.85326800      -1.43975200       0.47289800
C        0.96618700       0.03770400       0.32193600
C        1.81276900       0.72921900       1.38928800
H       -1.67182200       1.33467200      -2.70237400
H       -1.37608900      -0.34780400      -2.28738400
H       -0.04184500       0.79865900      -2.31902900
H       -2.41879100       0.91667000      -0.38959000
H       -1.09994800       2.06674500      -0.42155500
H       -0.87370900       0.48812900       1.43618600
H       -0.97394300      -1.75985800      -0.64731100
H       -1.16750100      -1.90850000       1.11612400
H        1.32586100      -1.97009700      -0.26262300
H        1.34192400       0.31954700      -0.68219800
H        1.46390800       0.48060000       2.38941200
H        1.77125400       1.81116100       1.27566900
H        2.85492000       0.42338200       1.31406400
