20
Properties=species:S:1:pos:R:3 pbc="F F F"
C       -0.31807100       2.08558500      -1.24476500
C       -0.92628700       0.68949200      -1.14974900
C       -0.41180500      -0.12199400       0.05521400
N       -0.73176300       0.43144800       1.36911300
C       -0.41541300      -1.62539500      -0.05508200
C        0.89021200      -0.87041100      -0.08593200
C        1.86133700      -0.99136700       1.06827300
H       -0.70917400       2.62031700      -2.10788100
H        0.76429100       2.03535000      -1.34355200
H       -0.54408900       2.67484200      -0.35782800
H       -0.71266900       0.13941400      -2.07160000
H       -2.01807700       0.77724300      -1.08875500
H       -1.73821700       0.53667200       1.48019600
H       -0.30082200       1.34554200       1.49092400
H       -0.76300600      -2.07737500      -0.97959400
H       -0.64041200      -2.19305400       0.84099900
H        1.36516100      -0.80857700      -1.06714500
H        1.33266100      -0.99951700       2.01773100
H        2.56233100      -0.15676500       1.07881400
H        2.44452100      -1.90969000       0.99613700
