20
Properties=species:S:1:pos:R:3 pbc="F F F"
N        0.04766100      -1.43871700      -1.85910100
C       -0.63668000      -1.13932000      -0.59883600
C        0.13978400      -0.10728000       0.25149900
C        1.46775100      -0.68401700       0.76286600
C        0.26289500       1.28461700      -0.42779200
C       -0.67166400       1.88533600       0.62887700
C       -0.73842600       0.53898100       1.36105300
H       -0.49386900      -2.09870100      -2.41099800
H        0.96637100      -1.83866200      -1.68709600
H       -0.80773500      -2.05486200       0.00859500
H       -1.63226900      -0.73759100      -0.83630200
H        2.13470100      -0.92979900      -0.06197400
H        1.30327300      -1.59119200       1.34335100
H        1.98121000       0.03283900       1.40073800
H       -0.10823100       1.32532100      -1.45402500
H        1.27393900       1.69891300      -0.41477200
H       -1.63258500       2.22485800       0.23411600
H       -0.24268200       2.70409700       1.21203600
H       -1.74286400       0.11801800       1.46335800
H       -0.27484100       0.54788300       2.35067500
