14
Properties=species:S:1:pos:R:3 pbc="F F F"
N       -3.73941400       0.23950200      -0.10394400
C       -2.58059000       0.23108200      -0.10028800
C       -1.18715500       0.22177600      -0.09625100
C        0.02881700       0.21572500      -0.09361500
C        1.50293200       0.21132000      -0.09173000
C        2.05098900       0.10537500       1.34091000
C        2.05092700      -0.90758900      -0.99274500
H        1.83149100       1.17909000      -0.51183200
H        1.74488200      -0.82730200       1.80851200
H        1.69149700       0.92720800       1.95540600
H        3.13818800       0.13739000       1.32995400
H        1.74485300      -1.88609300      -0.63068900
H        3.13812400      -0.87771000      -1.00873500
H        1.69134300      -0.79523900      -2.01270200
