14
Properties=species:S:1:pos:R:3 pbc="F F F"
N       -3.67901300       0.11823900       0.79300200
C       -2.52848700       0.11979300       0.80358700
C       -1.06637300       0.12204300       0.81888600
C       -0.47284400      -0.08746700      -0.58712100
C        0.99309200      -0.08568800      -0.57496600
C        2.20257100      -0.08624700      -0.57811800
C        3.65922800      -0.08799200      -0.58978900
H       -0.72026200      -0.66664900       1.49639000
H       -0.72023300       1.07397500       1.23703900
H       -0.83421800       0.70148300      -1.25901400
H       -0.83420900      -1.03803000      -0.99980700
H        4.03812700       0.36170400      -1.50898100
H        4.04590000      -1.10642200      -0.52559500
H        4.05486600       0.47961600       0.25408800
