20
Properties=species:S:1:pos:R:3 pbc="F F F"
C       -1.07887100      -0.20461000      -2.18415500
C       -0.70631000      -0.37545900      -0.71223100
C        0.44075800      -1.34528900      -0.36014800
C        1.06878000      -0.19577300       0.45829000
N        0.06551900       0.75209700      -0.11967700
C       -0.64330300       1.69027000       0.74203500
C        1.04558100      -0.38605300       1.97588400
H       -1.54555600      -1.10855600      -2.57156100
H       -0.20081700       0.00705200      -2.79059600
H       -1.78046400       0.61760200      -2.31247500
H       -1.62236200      -0.60159900      -0.12560500
H        1.04036000      -1.65913400      -1.21818800
H        0.15417100      -2.23435100       0.20672000
H        2.10221200       0.06710600       0.14950800
H        0.06752100       2.37167100       1.21733000
H       -1.23560000       1.20300700       1.53912700
H       -1.33503700       2.28814200       0.13968400
H        0.05579900      -0.66775000       2.32943200
H        1.34128500       0.52655600       2.49028100
H        1.74003600      -1.17293600       2.26603000
