19
Properties=species:S:1:pos:R:3 pbc="F F F"
N       -0.43513800      -2.51474300       0.01482600
C       -0.90776000      -1.14549500      -0.21706900
C       -0.29506400      -0.18311600       0.79126200
C       -0.29212200       1.30257700       0.59016600
C        1.01803600       0.53799900       0.54331500
C        1.80331100       0.35980700      -0.73815300
N       -0.89228600       1.89768000      -0.59575400
H       -0.89621800      -3.16569500      -0.61517500
H       -0.62253500      -2.80171200       0.97200900
H       -2.01681700      -1.08213200      -0.15277900
H       -0.64597900      -0.85585300      -1.24452400
H       -0.44082300      -0.50684300       1.82579700
H       -0.46018000       1.91030300       1.48698100
H        1.64994200       0.64070500       1.42843000
H        1.16459800       0.43325300      -1.61615300
H        2.29853100      -0.61056600      -0.76730100
H        2.57362800       1.12632900      -0.82523400
H       -0.87311100       1.25418400      -1.38154900
H       -0.39747000       2.74684000      -0.86113500
