15
Properties=species:S:1:pos:R:3 pbc="F F F"
C       -2.35506900      -0.06017100       0.30679100
C       -1.02882000      -0.03139300       0.03655000
C       -0.26586800       1.21854300      -0.31965800
C        1.17814500       1.16588600       0.19058800
N        1.85595100      -0.10494500      -0.09524900
C        1.11881400      -1.17009600      -0.15006300
N       -0.26386200      -1.19430000      -0.00051700
H       -2.93148000       0.85215500       0.31121400
H       -2.86147100      -0.99132900       0.52193200
H       -0.78294900       2.10293100       0.06285700
H       -0.25756400       1.31393900      -1.41407300
H        1.19829900       1.33241400       1.28198300
H        1.76000000       1.98875800      -0.25199600
H        1.58512300      -2.15295200      -0.31308600
H       -0.73778900      -2.08781800       0.08628500
