18
Properties=species:S:1:pos:R:3 pbc="F F F"
C        0.97521400      -1.98369600      -0.30517700
C        0.53498700      -0.96821900       0.71543800
C       -0.08050000       0.19521000       0.41994000
C       -0.45159100       0.69418000      -0.93253600
N       -1.67663700       1.50481900      -1.06478400
C       -0.38604000       2.16252200      -1.22406200
C        0.83998100      -1.32946500       2.14668300
H        0.64479600      -1.73705800      -1.31006300
H        0.58924800      -2.97209100      -0.05272000
H        2.06367400      -2.06621400      -0.32005600
H       -0.34929200       0.85426500       1.24659100
H       -0.28461000       0.01337400      -1.77333500
H       -2.06961300       1.70719800      -0.14210300
H       -0.06811800       2.84326600      -0.43147700
H       -0.15297600       2.49876000      -2.23594600
H        0.34823700      -2.26274700       2.42610000
H        0.51194400      -0.55351700       2.83415700
H        1.91085900      -1.48216200       2.29062700
