18
Properties=species:S:1:pos:R:3 pbc="F F F"
C       -0.49151500       2.65189300       0.56854800
C        0.44965500       1.71568100       1.25532300
C        0.63776100       0.41037100       0.98518900
C       -0.05231700      -0.41559000      -0.02744900
C       -1.35209400      -0.26522000      -0.34185800
C        0.81469700      -1.48671300      -0.66491900
N        0.06572300      -2.42422400      -1.49656500
H       -0.04502100       3.64242200       0.48333400
H       -1.41813000       2.76887900       1.13582400
H       -0.75583600       2.30242700      -0.42710800
H        1.06268800       2.16063500       2.03984000
H        1.42065800      -0.10666200       1.54429100
H       -1.97536900       0.46488000       0.15720600
H       -1.81652600      -0.89440200      -1.09053200
H        1.38054500      -2.00378600       0.14295700
H        1.58277700      -1.00206900      -1.28935400
H       -0.62483500      -2.92541400      -0.94344700
H        0.69186900      -3.09987300      -1.92606400
