15
Properties=species:S:1:pos:R:3 pbc="F F F"
N       -2.06952100       0.49164300      -0.17196100
C       -0.65463100       0.45631300      -0.04469300
C        0.20951700       1.57964100      -0.01123200
C        1.51313800       1.08704900       0.06633800
N        1.44909100      -0.27462500       0.07559400
C        0.13413600      -0.69393500       0.00300700
C       -0.24389800      -2.14372100      -0.00070200
H       -2.47598300       1.35096600       0.18107600
H       -2.52485100      -0.32465700       0.22237300
H       -0.07577600       2.62105200      -0.03782100
H        2.45905200       1.61096100       0.11191900
H        2.24679500      -0.89557300       0.12502500
H        0.64366600      -2.77339700       0.01091800
H       -0.82874100      -2.40883400      -0.88424900
H       -0.85072700      -2.41172900       0.86902000
