20
Properties=species:S:1:pos:R:3 pbc="F F F"
C        1.39637600       1.13568900      -1.86644100
C        1.04732200       0.49627100      -0.51552700
C       -0.33388300      -0.20093300      -0.58986700
C       -0.85682400      -0.67096900       0.76120100
N       -1.48250100       0.30042100       1.66477400
C       -2.32188700      -0.71834400       1.03086500
C        2.15565600      -0.46645900      -0.07088200
H        0.64082600       1.86107300      -2.16213600
H        1.46161500       0.38342900      -2.65026500
H        2.35470400       1.64831300      -1.81643800
H        0.97786200       1.30173900       0.23246200
H       -0.27029200      -1.05458800      -1.27604900
H       -1.05693200       0.49443400      -1.03103600
H       -0.22876400      -1.40774600       1.27588000
H       -1.60095500       1.20161200       1.19594000
H       -3.01248200      -0.38331000       0.25400800
H       -2.72787000      -1.47342700       1.70585700
H        2.25404000      -1.29799000      -0.76614100
H        1.95136800      -0.87515000       0.91603300
H        3.11382400       0.04713300      -0.02763500
