19
Properties=species:S:1:pos:R:3 pbc="F F F"
N        0.69934700      -0.14194600       2.56530600
C       -0.16588600      -0.62822800       1.48436400
C        0.46678900      -0.35432300       0.12589800
C        0.09395800       0.87082200      -0.68392800
C       -0.32205100      -0.48664900      -1.16259100
C       -1.77727100      -0.90686000      -1.17629400
N        1.09997400       1.61340600      -1.43364700
H        0.27317800      -0.31525600       3.47176200
H        0.86517500       0.85661900       2.47058900
H       -1.17589500      -0.16852500       1.52849100
H       -0.31535200      -1.71118000       1.62302800
H        1.50959600      -0.66744200       0.05490900
H       -0.69329500       1.51010400      -0.27131100
H        0.25242800      -0.88089300      -2.00368100
H       -2.34055700      -0.42940300      -0.37733000
H       -1.87798700      -1.98610000      -1.05940600
H       -2.24711200      -0.63466200      -2.12120300
H        1.70516700       0.98120800      -1.95070600
H        1.67617700       2.17673600      -0.81144700
