18
Properties=species:S:1:pos:R:3 pbc="F F F"
C       -2.30198500       1.20510900       0.99405300
C       -0.81453800       0.93495900       0.90997700
N       -0.04616300       1.68350200      -0.09543100
C       -0.20385200       0.22989000      -0.26074900
C        1.00706200      -0.65782500      -0.08061000
C        1.67806300      -1.26926800      -1.27552300
C        0.90058800      -2.13311100      -0.33439400
H       -2.50479500       2.10438100       1.57530800
H       -2.82316900       0.37743700       1.47508800
H       -2.72737500       1.34370600       0.00321600
H       -0.31573400       0.79888900       1.87900000
H        0.88828600       1.90354300       0.25804200
H       -0.86288400      -0.05119700      -1.09035300
H        1.66670500      -0.35974400       0.73702300
H        2.75986700      -1.35459100      -1.26661300
H        1.24964100      -1.07660400      -2.25372700
H        1.45292700      -2.80641300       0.31326600
H       -0.05235300      -2.52244200      -0.67876500
