18
Properties=species:S:1:pos:R:3 pbc="F F F"
C       -2.56158500       0.94188400       0.35440500
C       -1.81955500       0.13802600      -0.40783800
C       -1.15753400      -1.12374100       0.07437200
C        0.33993300      -1.19251200      -0.26957200
C        1.16279300      -0.12445900       0.43854100
C        1.48393200       1.17753800      -0.21010000
N        2.50675400       0.13801200      -0.08278100
H       -3.02951300       1.82955800      -0.05341600
H       -2.72325600       0.73455600       1.40603600
H       -1.67776600       0.37989100      -1.46196800
H       -1.65963100      -1.98268800      -0.39185600
H       -1.29932500      -1.23032400       1.15491500
H        0.47546300      -1.09664900      -1.35113500
H        0.71826400      -2.18465100       0.00589800
H        1.06371800      -0.11662300       1.53239300
H        1.59402500       2.06701800       0.41361300
H        1.14729800       1.37319900      -1.22894500
H        3.15554800       0.36021000       0.67508600
