20
Properties=species:S:1:pos:R:3 pbc="F F F"
C       -1.95107500      -0.89000800      -0.33456500
C       -0.43252400      -0.77862000      -0.40219200
C        0.38729400      -1.87733600       0.30650900
C        1.20360800      -0.80244100       1.03351500
C        0.25025500       0.28692900       0.50007100
C        0.89891800       1.49751400      -0.20104400
N       -0.07641400       2.41409400      -0.80606100
H       -2.30234000      -1.76054400      -0.88656600
H       -2.42720500      -0.00928200      -0.76323100
H       -2.29435100      -0.98729500       0.69378000
H       -0.12270200      -0.66720300      -1.45169700
H        0.95549300      -2.54192700      -0.34977100
H       -0.20894700      -2.49651500       0.98084300
H        2.22507900      -0.70508200       0.65562900
H        1.25473100      -0.89966400       2.12137000
H       -0.43287100       0.64241600       1.28502400
H        1.50483900       2.05945100       0.52462900
H        1.58622700       1.14986800      -0.98546300
H       -0.70703300       2.77778800      -0.09547100
H       -0.63486200       1.92310400      -1.50041700
