17
Properties=species:S:1:pos:R:3 pbc="F F F"
N       -0.81025300      -0.57651400       1.42857800
C        0.33297100      -1.28238300       2.01043400
C        0.54232400      -0.21319900       0.99292900
C        0.94630400      -0.54838400      -0.43712600
C        0.31680300       0.33521800      -1.51400200
N       -1.13046700       0.55710800      -1.51778000
C       -0.24499300       1.68601000      -1.23040500
H       -1.17862600       0.11332600       2.08699500
H        0.42566400      -2.33045400       1.72275500
H        0.56938700      -1.07213800       3.05549700
H        0.91932500       0.74772500       1.36817800
H        2.03983600      -0.48305300      -0.51917200
H        0.69042000      -1.59341500      -0.64693700
H        0.73854500       0.16935700      -2.51428100
H       -1.54013800       0.19560600      -0.65116300
H       -0.23134500       2.06692100      -0.20733600
H       -0.20848500       2.45839700      -2.00110600
