12
Properties=species:S:1:pos:R:3 pbc="F F F"
C       -2.96037300       0.54061100       0.48951900
C       -1.75200000       0.49845500       0.49353100
C       -0.30409600       0.44276300       0.52338000
C        0.50046900       1.22735500      -0.47112800
C        0.43012300      -0.26772800      -0.60054900
C        1.59464400      -1.06768200      -0.27905100
N        2.51772500      -1.70970900      -0.02696800
H       -4.02209800       0.58268200       0.48383500
H        0.12316200       0.33476700       1.52191000
H        1.43397100       1.66240300      -0.12959900
H       -0.03473000       1.81477300      -1.20964500
H       -0.17697400      -0.66930400      -1.41193500
