20
Properties=species:S:1:pos:R:3 pbc="F F F"
C       -1.54682200       0.35563400       1.37155500
C       -0.02473200       0.31327300       1.18487500
C        0.47504600      -1.09182000       0.79116200
C        0.14216000      -1.43956500      -0.66045500
N        0.66281100      -0.41363300      -1.57392700
C        0.13276800       0.92595000      -1.28650000
C        0.46378600       1.34437500       0.14687000
H       -1.86230600      -0.35942000       2.12963300
H       -2.07125700       0.11590800       0.44881900
H       -1.86866300       1.34576100       1.69023700
H        0.42913600       0.57244600       2.15717700
H        0.04660600      -1.84546700       1.46143300
H        1.56122700      -1.13023200       0.92729500
H       -0.95676800      -1.56815800      -0.77263800
H        0.59433900      -2.40747600      -0.92704700
H        0.44684800      -0.67026800      -2.54043100
H       -0.96666800       0.97429500      -1.44675300
H        0.57914700       1.63872900      -1.99721600
H        0.02634900       2.32681000       0.35726900
H        1.54909600       1.45541800       0.24467100
