16
Properties=species:S:1:pos:R:3 pbc="F F F"
C       -0.69039700       0.05768400       1.92877300
C       -0.95639400       0.18558900       0.44550100
C       -0.02969200       0.96771400      -0.43882100
C       -0.08767200      -0.54141600      -0.56057900
C        1.03668500      -1.33606500      -0.11194300
N        1.93170700      -1.97744800       0.23048300
C       -0.56998200       1.82806700      -1.55973500
H       -1.10918100       0.90478800       2.47137900
H        0.37684800       0.01882000       2.13336900
H       -1.14330900      -0.84827800       2.32980200
H       -2.01357700       0.22695800       0.17636200
H        0.86727800       1.35895700       0.04205200
H       -0.58996700      -0.94778800      -1.44019800
H       -1.46538500       1.38921000      -1.99523000
H        0.16652200       1.94741400      -2.35370300
H       -0.82646500       2.82261700      -1.19639200
