20
Properties=species:S:1:pos:R:3 pbc="F F F"
C        1.64085200      -1.99633600       0.57016000
C        0.63485200      -1.26191100      -0.31092200
C       -0.42855500      -0.53646900       0.50486900
C       -0.32297900       0.94191900       0.83518500
C       -1.37343200       0.46846300      -0.12721000
C       -1.34247600       0.78919600      -1.60671200
N        0.78972700       1.76299800       0.38532200
H        2.38382300      -2.51205600      -0.03500400
H        1.14521600      -2.73697600       1.19476900
H        2.16480400      -1.30590900       1.22806500
H        0.15709700      -1.98275600      -0.98644400
H        1.16627700      -0.54957400      -0.95060500
H       -0.87980300      -1.15804000       1.28186200
H       -0.68361200       1.23344400       1.82946100
H       -2.38862700       0.44761000       0.27721300
H       -0.33159300       0.78530500      -2.00788900
H       -1.77338100       1.77169300      -1.79892200
H       -1.92350800       0.06005400      -2.17130800
H        0.93598000       1.67218800      -0.61555500
H        1.64966900       1.50485700       0.86488200
