20
Properties=species:S:1:pos:R:3 pbc="F F F"
C       -1.12490000       2.89141300       0.28446400
C       -1.66082900       1.54066600       0.74387800
C       -1.12302900       0.35230000      -0.06630200
C        0.36885900       0.07481200       0.16025600
C        0.87522500      -1.08686100      -0.68433100
C        0.86203500      -2.48987900      -0.18201000
N        2.11638300      -1.73896900      -0.25949200
H       -1.56344200       3.69755500       0.86914500
H       -1.36153800       3.06936100      -0.76286800
H       -0.04420500       2.94864900       0.39579600
H       -2.75383100       1.54850500       0.67064500
H       -1.42563100       1.39625100       1.80367700
H       -1.30406300       0.52750100      -1.13288500
H       -1.69808400      -0.54280900       0.19724600
H        0.55004500      -0.13901700       1.21781100
H        0.95000100       0.97349600      -0.07710800
H        0.75139600      -0.95621200      -1.76836100
H        0.72302200      -3.30658500      -0.89383800
H        0.51040700      -2.70143100       0.82873200
H        2.66707400      -2.03718400      -1.06726800
