15
Properties=species:S:1:pos:R:3 pbc="F F F"
N        0.05170100      -0.09553500       3.04435700
C       -0.14766600      -0.06112600       1.90990900
C       -0.43184800       0.03064400       0.48755200
C        0.53784800       0.69624400      -0.45778200
N        0.40632400      -0.76349900      -0.42958300
C       -0.27533300      -1.44276500      -1.53247100
C        0.04566600       1.53059100      -1.62208000
H       -1.49976300       0.10148800       0.24360000
H        1.48251300       1.04618100      -0.02319100
H        0.39858900      -1.51109100      -2.39000600
H       -1.20043600      -0.94225300      -1.85663000
H       -0.53428100      -2.46011100      -1.22558300
H       -0.95490200       1.24292900      -1.93606700
H        0.71084600       1.43050700      -2.47925600
H        0.01925900       2.58405900      -1.34705300
