20
Properties=species:S:1:pos:R:3 pbc="F F F"
C       -1.31264200       2.29828800      -0.80144300
C       -1.57561400       0.81183800      -1.00762900
N       -0.98706200       0.01005800       0.08149200
C       -0.67240700      -1.38520200      -0.24465900
C        0.41891300      -0.37701800      -0.08077400
C        1.30354000      -0.34915200       1.15962600
C        2.56764800      -1.18625800       0.99771200
H       -1.75798900       2.88466800      -1.60285600
H       -0.24440800       2.50670000      -0.78571200
H       -1.73147900       2.64189600       0.14182700
H       -1.18587100       0.49833500      -1.99770900
H       -2.66113800       0.62740200      -1.02658200
H       -0.91477400      -1.73363800      -1.25226500
H       -0.87150700      -2.10722900       0.54948200
H        0.90740400      -0.04150100      -1.00670100
H        0.73180000      -0.70730000       2.02091000
H        1.58384500       0.68690700       1.38432700
H        2.32616800      -2.23297200       0.82278400
H        3.18783900      -1.13019400       1.88985400
H        3.16290900      -0.83844900       0.15520100
