20
Properties=species:S:1:pos:R:3 pbc="F F F"
C        0.64697900      -2.00179500       1.70874500
C       -0.35576900      -1.38828100       0.73632100
C        0.30182600      -0.43614700      -0.25654000
C        0.37009200       1.05365500       0.00894800
C       -0.51388200       0.53880400      -1.08580800
C       -2.02289400       0.61757000      -0.98285000
N        1.55500100       1.82972500      -0.33642700
H        0.15097900      -2.67874100       2.40148900
H        1.14827600      -1.23271100       2.29283200
H        1.41118100      -2.56703300       1.17867500
H       -1.12895100      -0.85789800       1.30145600
H       -0.86835300      -2.19374900       0.19514300
H        1.16199900      -0.86283100      -0.77628900
H       -0.12739400       1.41057900       0.91605900
H       -0.13739300       0.69061800      -2.09980000
H       -2.35717200       0.55778600       0.05054900
H       -2.50053200      -0.19050500      -1.53726800
H       -2.38744900       1.55817500      -1.39522000
H        1.88193500       1.59742700      -1.27036600
H        2.30975800       1.65797200       0.32483700
