19
Properties=species:S:1:pos:R:3 pbc="F F F"
C       -1.52030200       0.13767100       1.75162100
C       -1.71599900       0.27454700       0.25618600
N       -0.81536000       1.12643500      -0.53074800
C       -0.77502900      -0.32466100      -0.74440400
C        0.43828700      -1.17943200      -0.35249600
C        1.67653500      -0.43164200       0.15784300
N        2.19287800       0.50918400      -0.83581700
H       -1.96005400       0.98481700       2.27779500
H       -0.46717800       0.09240400       2.01916900
H       -2.00176200      -0.76544500       2.12744300
H       -2.76840900       0.36294500      -0.04449200
H       -0.01311000       1.42647200       0.02757200
H       -1.22239000      -0.62747500      -1.70045400
H        0.14285600      -1.91595200       0.40615600
H        0.73336600      -1.76543500      -1.23082900
H        2.43903800      -1.18821800       0.44523800
H        1.44148900       0.12079200       1.08099600
H        2.34286400       0.04757600      -1.72877000
H        3.06971800       0.91928300      -0.52636200
