16
Properties=species:S:1:pos:R:3 pbc="F F F"
C       -3.68494600       0.31103100      -0.48187500
C       -2.18576800       0.31737200      -0.49757000
C       -1.42838700      -0.18801600       0.49517600
C        0.00344200      -0.18522700       0.48762900
C        1.21775500      -0.19489600       0.51371400
C        2.68571600      -0.22839900       0.55707200
N        3.28042600       0.15819400      -0.72354400
H       -4.08652900       0.76811300      -1.38205100
H       -4.07916600       0.86013800       0.37455500
H       -4.08202300      -0.70320800      -0.41802700
H       -1.69892100       0.76010500      -1.36389300
H       -1.90032000      -0.63505800       1.37277700
H        3.00700700      -1.24617900       0.87778100
H        3.04327200       0.46011000       1.34233300
H        2.89746200      -0.39940200      -1.48201700
H        4.28936900       0.03682700      -0.70153800
