17
Properties=species:S:1:pos:R:3 pbc="F F F"
C       -1.15383400      -0.87385400       1.77130200
C       -1.27902900      -1.19365100       0.28763600
C       -0.31774000      -0.39146500      -0.61656600
C       -0.49608400       1.13995100      -0.59940000
C        0.94095000       1.60278400      -0.54497000
N        1.79099600       0.63694700      -0.37412400
N        1.10687400      -0.57562500      -0.21942500
H       -1.80518500      -1.51731000       2.35929700
H       -1.42836600       0.15853800       1.97881900
H       -0.13174200      -1.02187400       2.11210500
H       -2.30857600      -1.01914700      -0.04337800
H       -1.08694500      -2.26195400       0.13506600
H       -0.45672100      -0.76536500      -1.65548400
H       -1.06421600       1.48645100       0.27447200
H       -1.03010400       1.51607600      -1.48032900
H        1.27257300       2.63809300      -0.61801200
H        1.58861700      -1.34535400      -0.69572300
