20
Properties=species:S:1:pos:R:3 pbc="F F F"
C        0.23358200       0.02216400       2.29312000
C       -0.85435600      -0.18212600       1.24594500
C       -0.40747200      -0.07063400      -0.23433600
C       -1.62766100      -0.26732600      -1.14873900
C        0.44797000       1.16516200      -0.62617800
N        1.48744100       0.27968500      -1.19111300
C        0.81449700      -0.92677300      -0.66651400
H       -0.17744600      -0.11135700       3.29169600
H        0.65682300       1.02331100       2.24254600
H        1.04711700      -0.69033500       2.17287600
H       -1.65558600       0.54509200       1.42246800
H       -1.30841900      -1.16899600       1.39402600
H       -2.38680600       0.48999900      -0.95547100
H       -2.08299900      -1.24392700      -0.98729300
H       -1.34304000      -0.19817200      -2.19630900
H        0.79877900       1.77418000       0.22198200
H        0.00044700       1.84843700      -1.36660900
H        2.42186000       0.43587900      -0.80808500
H        1.35649000      -1.41145900       0.16138900
H        0.62133400      -1.69324800      -1.43520900
