17
Properties=species:S:1:pos:R:3 pbc="F F F"
C       -1.08417800      -2.39484600       0.43651600
C       -1.28908500      -0.88769200       0.52581400
C       -0.32463500      -0.09331900      -0.37831800
C       -0.51495200       1.43555300      -0.31689200
C        0.91742600       1.90919800      -0.23519800
N        1.77406800       0.94561700      -0.08692400
N        1.10021500      -0.27737200       0.02301800
H       -1.79401000      -2.91996800       1.07203400
H       -0.08180000      -2.67330700       0.75485200
H       -1.22155300      -2.75037200      -0.58323200
H       -1.16538600      -0.56231300       1.56339800
H       -2.31962600      -0.64381800       0.24540500
H       -0.45837100      -0.44800000      -1.42355100
H       -1.09259100       1.74496800       0.56559800
H       -1.04674000       1.83765600      -1.18775100
H        1.24025100       2.94901000      -0.27375100
H        1.59237900      -1.02493800      -0.47719200
