20
Properties=species:S:1:pos:R:3 pbc="F F F"
C       -1.78362600       0.62692400       2.22805600
C       -0.30452300       0.31838800       2.02919200
C       -0.01044700      -0.53041800       0.78160300
C       -0.25301900       0.21215000      -0.52688600
C        0.85197700       1.02947200      -1.15660000
C        0.35017600      -0.23229400      -1.82187200
N        1.17432700      -1.42981500      -1.90006800
H       -1.93724100       1.20572200       3.13665000
H       -2.36616000      -0.28865900       2.31132800
H       -2.18479800       1.20137900       1.39593600
H        0.06863400      -0.21402000       2.91122000
H        0.26004400       1.25493100       1.97408400
H       -0.62587600      -1.43783900       0.80872100
H        1.03235700      -0.86298100       0.82529100
H       -1.25016200       0.64972100      -0.60703300
H        1.82564300       0.99623500      -0.67901800
H        0.59416000       1.99049100      -1.59164300
H       -0.26672200      -0.09415000      -2.71592200
H        1.66404100      -1.59386000      -1.02501500
H        1.86256700      -1.34359200      -2.64507600
