15
Properties=species:S:1:pos:R:3 pbc="F F F"
C       -2.41605200      -0.03719700       0.15700300
C       -0.92435300       0.04832500       0.19482400
N       -0.24546500       1.17174600       0.24728200
C        1.16065900       0.80901900       0.19754800
C        1.23874600      -0.69853700       0.16849400
N       -0.14533800      -1.10342500       0.24168200
C        1.62931400       0.10400100      -1.05599800
H       -2.85475800       0.95542400       0.17796100
H       -2.80044400      -0.60157900       1.00765300
H       -2.76040600      -0.54410600      -0.74588000
H        1.86241700       1.45471400       0.73164700
H        1.96999900      -1.32019800       0.69431100
H       -0.47344100      -2.01360100      -0.06220800
H        0.97209900       0.07938100      -1.91921300
H        2.69027600       0.15805000      -1.27823600
