18
Properties=species:S:1:pos:R:3 pbc="F F F"
C       -2.69201700       0.11389400       0.89046200
C       -1.54174400      -0.45897700       0.53405600
C       -0.96375500      -0.40497500      -0.85367300
C        0.51776400       0.00592200      -0.91342200
C        0.99263500       1.19406400      -0.05316000
N        2.11123100       0.37955000       0.46701000
C        1.55674100      -0.84186400      -0.15239200
H       -3.07424100       0.02729900       1.90023000
H       -3.28389200       0.68326000       0.18287900
H       -0.97595800      -1.02487300       1.27508800
H       -1.55643100       0.28034600      -1.46961800
H       -1.06376000      -1.39803900      -1.31622300
H        0.79961600       0.13039500      -1.96922400
H        0.27387200       1.50128600       0.72287000
H        1.31280200       2.09764900      -0.59747700
H        2.16583900       0.34428900       1.48700900
H        1.12480700      -1.54913200       0.57480200
H        2.28098000      -1.39771200      -0.77063600
