19
Properties=species:S:1:pos:R:3 pbc="F F F"
C        0.94614800      -2.37021800       0.05064500
C        1.09853300      -0.89198300       0.39608100
C       -0.21004200      -0.25092500       0.84122800
C       -0.45642300       1.24483600       0.68488400
C       -1.24311200       0.25144200      -0.13572300
N       -1.03906600       0.11794900      -1.56997600
N        0.51034100       2.10904700       0.02761500
H        1.89926000      -2.79729200      -0.25543800
H        0.23596900      -2.51064900      -0.76093700
H        0.58593100      -2.93519600       0.90808100
H        1.50796100      -0.35301700      -0.46567000
H        1.84067100      -0.78415400       1.19704800
H       -0.62241900      -0.69620500       1.74977200
H       -0.98723800       1.73185600       1.51216700
H       -2.28899500       0.10287400       0.16287200
H       -0.08798400      -0.16135600      -1.79022900
H       -1.25394700       0.98650800      -2.05532100
H        0.65442300       1.82454200      -0.93807000
H        1.40681600       2.10420700       0.50956000
