19
Properties=species:S:1:pos:R:3 pbc="F F F"
C       -1.99566900       1.07750100       1.28359600
C       -0.48713300       0.98167900       1.39264200
C        0.41565400       1.60513000       0.37620600
N        0.31190700       0.14760900       0.48256500
C       -0.36738000      -0.56743600      -0.61375400
C        0.65605400      -1.08490900      -1.62972100
N        1.55397800      -2.05818600      -1.00616900
H       -2.36765500       1.89662300       1.89831900
H       -2.47360200       0.16241200       1.63340300
H       -2.31999500       1.25751000       0.26150500
H       -0.12232600       0.94963300       2.42855100
H        1.37230900       2.03613300       0.68078300
H       -0.04073100       2.07634200      -0.49845800
H       -1.10497500       0.07277800      -1.13640400
H       -0.92244700      -1.41369300      -0.18400600
H        1.21248500      -0.22483600      -2.05939400
H        0.12944000      -1.56082700      -2.47258800
H        1.90463200      -1.68337700      -0.12713300
H        2.34251200      -2.26644500      -1.61316600
