20
Properties=species:S:1:pos:R:3 pbc="F F F"
C       -1.42707700       1.61759000       0.94297500
C        0.04887000       1.29311600       1.03333700
C        1.01434600       1.82673200       0.01203400
C        0.73841100       0.35214000       0.08260200
C        0.00977400      -0.35668400      -1.05124000
C       -0.57426400      -1.71104300      -0.62959900
N        0.47981700      -2.65123100      -0.24028900
H       -1.64352200       2.56648700       1.43394600
H       -2.02968900       0.85157000       1.43143900
H       -1.75787700       1.69708000      -0.09004200
H        0.42430300       1.26746900       2.05858800
H        1.97940300       2.18896700       0.35423700
H        0.60119500       2.37748700      -0.82724300
H        1.53038300      -0.25160900       0.52860200
H        0.70622500      -0.51355600      -1.88552700
H       -0.79384600       0.27679300      -1.43950800
H       -1.19377900      -2.11117300      -1.46170700
H       -1.25500600      -1.57620800       0.22277700
H        1.13182500      -2.79719700      -1.00681800
H        0.08130600      -3.54860000       0.02262300
