20
Properties=species:S:1:pos:R:3 pbc="F F F"
C       -1.16696400       0.97923100       1.81652600
C       -1.51168800       1.37692300       0.38661000
C       -0.95712900       0.41358400      -0.67349500
C        0.56579700       0.39259700      -0.73177500
C        1.27175500      -0.61631700      -1.60642200
C        1.39075900      -0.72206100      -0.12144100
N        0.78575400      -1.85559300       0.56065900
H       -1.56995700       1.69969100       2.52556900
H       -0.08973100       0.93266700       1.96115900
H       -1.57949100       0.00201900       2.06169900
H       -1.13383200       2.38626700       0.19071400
H       -2.60063300       1.43135100       0.28073000
H       -1.35614200       0.71006000      -1.65242100
H       -1.33355800      -0.59773400      -0.48436700
H        1.02450800       1.38319900      -0.70958900
H        2.13316600      -0.28326200      -2.17779800
H        0.65601200      -1.35177100      -2.11453100
H        2.35142500      -0.42590500       0.31482400
H        0.04421100      -2.26494500      -0.00041100
H        0.39856900      -1.57622400       1.45979400
