17
Properties=species:S:1:pos:R:3 pbc="F F F"
C        1.58684300      -0.01920900      -0.00725300
C        0.75091100       1.27028600       0.19808400
N       -0.70991600       1.06913300      -0.01034500
C       -1.14351500      -0.01857500       0.95514600
C       -0.65196200      -1.04680200      -0.06903400
N        0.79531000      -1.26388400       0.15224100
C       -0.88832600       0.05068200      -1.12594900
H        2.43586400      -0.03027800       0.69869200
H        2.04469900       0.00534300      -1.01426600
H        1.10720700       2.04765900      -0.49554500
H        0.89395700       1.66869800       1.21281800
H       -2.23394300       0.00101700       1.08509500
H       -0.65329000       0.01300000       1.93444100
H       -1.16149300      -2.02322200      -0.15802800
H        1.14848200      -1.97301000      -0.49512800
H       -1.91769700       0.08944400      -1.50617700
H       -0.18524600       0.14632700      -1.96114600
