15
Properties=species:S:1:pos:R:3 pbc="F F F"
C       -2.41506900       0.65118400       0.80880900
C       -0.91745200       0.90567400       0.91237200
C       -0.13432800       0.38798200      -0.31421500
C        1.34922500       0.65464300      -0.29662400
N        2.05817200      -0.41909200      -0.44611900
N        1.14798000      -1.55369100      -0.56041100
C       -0.06589400      -1.10932800      -0.47562200
H       -2.93008300       1.03908600       1.68481500
H       -2.63149600      -0.41273800       0.73932900
H       -2.83649300       1.13562100      -0.07005300
H       -0.52470100       0.43547000       1.81867900
H       -0.73572600       1.98138300       1.01598700
H       -0.57884000       0.83753600      -1.22013300
H        1.81794700       1.63549100      -0.19322400
H       -0.92256200      -1.78330200      -0.53800700
