18
Properties=species:S:1:pos:R:3 pbc="F F F"
C       -0.72833900       1.87210200       1.41266300
C       -1.13378400       0.40041200       1.34884900
C       -0.61796100      -0.30594800       0.11076400
C       -1.44904700      -0.81764100      -0.80855900
C        0.87419000      -0.39196900      -0.03074300
C        1.57584100       0.11960400      -1.25297000
N        1.43002000      -1.31178600      -1.03068600
H       -1.11988100       2.33933600       2.31405300
H       -1.11375700       2.42043400       0.55597800
H        0.35443200       1.98298800       1.42108700
H       -2.22400000       0.32164900       1.38843200
H       -0.74964100      -0.11156200       2.24100400
H       -2.52393700      -0.73893400      -0.70083000
H       -1.05838200      -1.33453700      -1.67609200
H        1.43349500      -0.31080400       0.91086200
H        2.57489800       0.55012500      -1.14557900
H        0.98547700       0.52609500      -2.07525800
H        2.30575200      -1.72165200      -0.69888800
