17
Properties=species:S:1:pos:R:3 pbc="F F F"
C       -0.49234600       2.02904900      -2.20242500
C        0.39063000       1.48439400      -1.08574700
C       -0.31639400       0.42527800      -0.24648800
C       -0.21796800      -1.03714600      -0.57750500
N        0.51465400      -0.47492700       0.54771800
C        0.22072500      -0.81376200       1.88340600
N        0.08553600      -2.01523900       2.33056900
H        0.02858900       2.79954200      -2.76588300
H       -1.40410700       2.46676500      -1.80064300
H       -0.77929800       1.24183000      -2.89673000
H        0.70347900       2.31007900      -0.43603600
H        1.30598000       1.06005500      -1.50855700
H       -1.25043200       0.75742200       0.22702300
H        0.39256100      -1.35829700      -1.42418000
H       -1.05887600      -1.69342100      -0.34101700
H        0.21235800       0.03911900       2.58447700
H        0.14053800      -2.71881200       1.58608800
