20
Properties=species:S:1:pos:R:3 pbc="F F F"
C        0.25840800      -2.28901300      -2.07521600
C        0.60347800      -2.21412900      -0.59264500
C       -0.19208700      -1.14909700       0.17573000
C        0.17887600       0.29191900      -0.20193500
C       -0.66157600       1.32029500       0.54349700
C       -0.20692900       1.89262600       1.84181000
N       -0.18856700       2.70565700       0.62362900
H        0.81961700      -3.08461100      -2.56070900
H        0.49268600      -1.35730900      -2.58550200
H       -0.80125600      -2.49000900      -2.21905300
H        1.67577200      -2.02417700      -0.47634300
H        0.41365800      -3.19046800      -0.13388000
H       -0.02655800      -1.29044500       1.24978600
H       -1.26367200      -1.30402500       0.00869800
H        0.04810400       0.43249400      -1.28142500
H        1.24112500       0.46455500       0.00427900
H       -1.74303100       1.23151900       0.38247700
H        0.75770800       1.57973700       2.24661600
H       -0.93952200       2.19476700       2.59198300
H        0.76432000       2.78276300       0.26022300
