17
Properties=species:S:1:pos:R:3 pbc="F F F"
C       -1.83932100      -0.80205400      -0.43830400
C       -0.31796400      -0.67522800      -0.52589900
C        0.52843400      -1.78196000       0.15334100
C        1.16993000      -0.67723900       1.01085900
N        0.28546900       0.30689000       0.39306400
C        0.52244500       1.64862600       0.17364700
N       -0.09075600       2.38968000      -0.69809400
H       -2.18947400      -1.62541100      -1.05751700
H       -2.32174900       0.11039000      -0.78245200
H       -2.15935900      -0.98699600       0.58475300
H       -0.02273000      -0.49058300      -1.57851300
H        1.21454800      -2.31580700      -0.50732700
H       -0.05103700      -2.51449200       0.71919900
H        2.24255900      -0.50153600       0.81977100
H        1.03863100      -0.78000600       2.10237900
H        1.26783100       2.09630300       0.85257000
H       -0.76335400       1.85927300      -1.25952300
