18
Properties=species:S:1:pos:R:3 pbc="F F F"
C        0.83064300      -2.30114900       2.05501700
C        0.59936700      -1.20016600       1.06997600
C       -0.60519100      -0.68494700       0.78539000
C       -0.84019100       0.42866500      -0.18015200
C       -0.15118800       1.75859700      -0.03730200
N        0.25204300       0.82440800      -1.08450600
C       -0.13436900       1.17546400      -2.45163300
H        1.30935100      -3.15825800       1.57784200
H       -0.10079800      -2.63845000       2.50460200
H        1.49688000      -1.97511800       2.85632300
H        1.47620200      -0.80909400       0.55521000
H       -1.48956600      -1.07523000       1.29022700
H       -1.85433700       0.47038600      -0.60175600
H        0.57335800       1.90282300       0.76618700
H       -0.69275500       2.65924900      -0.34063600
H        0.61332400       1.84612700      -2.88583900
H       -1.11575100       1.67462300      -2.50947800
H       -0.17464200       0.27329900      -3.06891200
