22
Properties=species:S:1:pos:R:3 pbc="F F F"
C       -0.59003500      -1.68112000       0.56890400
C       -1.03429400      -0.21275000       0.57404900
C       -0.44504100       0.61501800      -0.59429300
C        1.09328500       0.79751400      -0.65523200
N        1.74423800      -0.34365700      -1.33217700
C        1.73103300       1.09908500       0.71726600
C       -2.56811700      -0.12171000       0.54244700
H        0.47496400      -1.77524200       0.76976600
H       -0.79809300      -2.15264900      -0.38910200
H       -1.11911800      -2.24044000       1.33826200
H       -0.69717300       0.23833400       1.52125100
H       -0.89614300       1.61263900      -0.54378000
H       -0.77618100       0.18172400      -1.54271100
H        1.27400300       1.67906400      -1.29993100
H        1.64842700      -1.19332800      -0.78275100
H        2.73657000      -0.15519100      -1.45237400
H        1.66581800       0.24331500       1.38596800
H        1.24243800       1.94326200       1.19941900
H        2.78486600       1.34483500       0.59887200
H       -2.96659600      -0.54499200      -0.37762500
H       -2.89795700       0.91353400       0.60421600
H       -3.00646800      -0.66549200       1.37691000
