20
Properties=species:S:1:pos:R:3 pbc="F F F"
N       -2.91315600       1.66298000      -0.13416400
C       -1.45195200       1.60295500      -0.21916600
C       -0.92606400       0.28301000       0.36089200
C        0.57821900       0.20275300       0.33101200
C        1.33155200      -0.86805500       0.01605400
C        0.78327300      -2.21115800      -0.38695700
C        2.83645700      -0.78385400       0.06354400
H       -3.25929000       2.54024200      -0.51371000
H       -3.22120300       1.58321300       0.83173300
H       -0.97106300       2.45434900       0.30856000
H       -1.15898300       1.69171200      -1.27466900
H       -1.37883600      -0.55554200      -0.17551800
H       -1.27472400       0.19825600       1.40161700
H        1.09731200       1.11889900       0.61654400
H       -0.28574900      -2.18392400      -0.57851800
H        0.96327700      -2.95023200       0.39609300
H        1.28296900      -2.57489000      -1.28518200
H        3.17318400       0.20727300       0.35813300
H        3.27134700      -1.01713200      -0.90963000
H        3.24494200      -1.50699700       0.77142200
