20
Properties=species:S:1:pos:R:3 pbc="F F F"
C       -3.15567500      -0.80402700      -0.17718100
C       -1.67993000      -0.92162600      -0.39690100
C       -0.76300700      -0.82079900       0.57326900
C        0.71994500      -0.96617300       0.35441600
C        1.53199600       0.21817000       0.90444400
C        1.31797300       1.51497400       0.11651900
N        1.83320700       1.40099400      -1.25040900
H       -3.57601600       0.00805400      -0.77301500
H       -3.39057900      -0.61620100       0.86807700
H       -3.66922200      -1.71747400      -0.48303800
H       -1.35713100      -1.10171100      -1.42230500
H       -1.08728600      -0.63642200       1.59858900
H        0.93038700      -1.09110600      -0.71160400
H        1.06507300      -1.88302600       0.85416600
H        2.59714100      -0.04093200       0.88965700
H        1.26798700       0.38748500       1.95431200
H        1.79734500       2.35387500       0.66689300
H        0.24575300       1.74923600       0.06838100
H        2.82798400       1.19096000      -1.24267100
H        1.68830600       2.26718800      -1.76197400
