12
Properties=species:S:1:pos:R:3 pbc="F F F"
C       -0.54049700       0.38721100       2.46523800
C       -0.73966200       0.44277700       1.27430600
C       -1.03185500       0.51841500      -0.14300300
C       -0.11366800       1.26000400      -1.07001300
C       -0.18217000      -0.23911000      -1.14714700
C        0.94579800      -1.03295600      -0.70259400
N        1.84226400      -1.68040900      -0.37960600
H       -0.33436700       0.32471000       3.50560900
H       -2.09829200       0.56458500      -0.37655800
H        0.78285200       1.70090300      -0.64888500
H       -0.56243500       1.82261400      -1.88328700
H       -0.71128200      -0.66799000      -2.00035700
