17
Properties=species:S:1:pos:R:3 pbc="F F F"
C       -0.62158600       1.20027000       1.49696900
C       -0.96208400       1.09276600       0.02757400
C       -0.07071600       1.72647700      -1.00570500
C       -0.13956200       0.23324300      -0.90394200
N        1.02539000      -0.47022200      -0.41037700
C        0.94778700      -1.73523700       0.14628900
N       -0.13674700      -2.36694900       0.46448700
H       -0.96005400       2.15134800       1.90756900
H        0.45223500       1.12777500       1.65226000
H       -1.09861300       0.40363200       2.06555800
H       -2.03029500       1.12856400      -0.19309800
H        0.83621100       2.21107600      -0.65843900
H       -0.53530000       2.20280400      -1.86353400
H       -0.68941700      -0.29024400      -1.70080500
H        1.93217400      -0.15352700      -0.74086300
H        1.93046600      -2.19706900       0.33756200
H       -0.98093900      -1.82928200       0.24791400
