16
Properties=species:S:1:pos:R:3 pbc="F F F"
C       -0.94257000       0.14151500       1.69022200
C       -1.25062500       0.19199300       0.21054000
C       -0.39713400       0.94597200      -0.76981200
C       -0.40591200      -0.56964800      -0.79128100
C        0.75807400      -1.30749200      -0.34638900
N        1.68012500      -1.91345800      -0.01119100
C        0.83569900       1.71636500      -0.35275400
H       -1.31233700       1.03430600       2.19396400
H        0.12611000       0.06679700       1.87277800
H       -1.42205400      -0.72076600       2.15189000
H       -2.31908800       0.19099900      -0.01673600
H       -0.94452400       1.40499800      -1.59620400
H       -0.93234900      -1.05017300      -1.61852400
H        1.39643300       1.18715000       0.41307300
H        0.56501500       2.69649500       0.03927900
H        1.49671600       1.87217200      -1.20434000
