20
Properties=species:S:1:pos:R:3 pbc="F F F"
N       -0.85820200       0.64609900       2.64282500
C       -1.75697800       0.86406500       1.51126000
C       -1.13597000       0.52421900       0.18142700
C        0.05255200      -0.06466900       0.00885900
C        0.64268100      -0.39984500      -1.34854700
C        1.96832300       0.34856600      -1.56981800
C        0.84574900      -1.91730700      -1.49663000
H       -1.32385100       0.87434100       3.51691100
H       -0.02667100       1.22493800       2.55720400
H       -2.12784700       1.91411100       1.47080900
H       -2.66078700       0.24795100       1.65733400
H       -1.73499600       0.78565800      -0.69244300
H        0.64748800      -0.33732000       0.87962700
H       -0.06656300      -0.07290100      -2.12589500
H        2.70433800       0.06950200      -0.81842200
H        1.82134800       1.42483200      -1.51224400
H        2.38371500       0.11554600      -2.54845700
H        1.53660800      -2.29364400      -0.74489900
H        1.25302700      -2.15770200      -2.47696700
H       -0.09653600      -2.44818000      -1.38164700
