14
Properties=species:S:1:pos:R:3 pbc="F F F"
C       -1.91455100      -0.00343300      -1.86881400
C       -2.33049900      -0.28005200      -0.63329500
C       -1.44902100      -0.40648800       0.58479300
C        0.02311200      -0.41770500       0.29821900
C        0.89815900       0.43807000       0.85318000
C        2.30846200       0.39866600       0.58828400
N        3.44664700       0.38917000       0.39277300
H       -2.61878300       0.07807400      -2.68742200
H       -0.86673900       0.15103100      -2.09707300
H       -3.39539900      -0.41978500      -0.44561200
H       -1.71618400      -1.34011400       1.10365700
H       -1.69139600       0.39985900       1.28990100
H        0.38347900      -1.18253000      -0.38859100
H        0.56452300       1.21492300       1.54152900
