20
Properties=species:S:1:pos:R:3 pbc="F F F"
C        0.41712300      -0.61823600       1.50228700
C       -0.03051500      -0.41342900       0.06173400
C       -1.54997600      -0.45144500      -0.15435100
C       -2.29347800       0.70471600       0.50801100
C        0.83141600      -1.01026700      -1.03479100
C        0.79009100       0.47509100      -0.85770000
N        1.98698900       1.17161800      -0.40716200
H        1.50181700      -0.65372000       1.57744100
H        0.02417500      -1.55271700       1.90307000
H        0.06366000       0.18729500       2.14629000
H       -1.75812800      -0.44079500      -1.22954000
H       -1.94874800      -1.39952300       0.22705200
H       -1.94708300       1.66354000       0.12715000
H       -2.14821500       0.70253600       1.58613300
H       -3.36225000       0.63448600       0.31601500
H        0.33640700      -1.43995300      -1.90109400
H        1.73796600      -1.52667000      -0.73485500
H        0.22826000       1.03702800      -1.61237700
H        2.62386800       0.53698300       0.06599400
H        1.75137700       1.93160300       0.22770900
