15
Properties=species:S:1:pos:R:3 pbc="F F F"
C        2.26910300       0.65034500       1.50910600
C        1.55526300       0.08198900       0.53664400
C        0.04348800       0.09720900       0.47306300
C       -0.52610700       1.03310200      -0.64612100
N       -1.54198100       0.24282300      -1.35644800
C       -1.49459100      -0.96645200      -0.88415900
N       -0.51879800      -1.20949900       0.08119300
H        3.35196100       0.63683000       1.49526100
H        1.78976200       1.14663700       2.34605300
H        2.06797300      -0.40540800      -0.29273400
H       -0.35341700       0.39759800       1.46653100
H        0.26025800       1.35175500      -1.34962700
H       -0.96551000       1.95402100      -0.23327900
H       -2.13083300      -1.78157000      -1.23740300
H       -0.67768100      -1.91028400       0.80077800
