13
Properties=species:S:1:pos:R:3 pbc="F F F"
C       -1.82935400       0.32068300      -1.58287100
C       -1.18958400       1.02638900      -0.65018100
C       -0.34163100       0.44870600       0.45780300
C        1.13632400       0.77122600       0.37982200
N        1.88204100      -0.28269000       0.46478900
N        1.01687700      -1.45065400       0.58152400
C       -0.21431600      -1.04934600       0.55489200
H       -2.41490000       0.81630500      -2.34760900
H       -1.78310700      -0.76114100      -1.61433300
H       -1.25552700       2.11562200      -0.66272900
H       -0.72946700       0.84059600       1.41867300
H        1.56544300       1.77036900       0.28594400
H       -1.04350800      -1.75429000       0.63907600
