20
Properties=species:S:1:pos:R:3 pbc="F F F"
C       -1.35103600      -0.68056000      -2.24678700
C       -1.74083900      -1.07663600      -0.82997500
C       -0.96154600      -0.35724600       0.26796800
N       -0.57963000       1.04608200       0.05789000
C        0.47816300       0.02902800       0.15258600
C        1.38531400       0.01830700       1.37827100
C        2.54382300       1.00367400       1.26109200
H       -2.00581500      -1.16062600      -2.97153000
H       -0.32867600      -0.97515300      -2.47570700
H       -1.42652900       0.39583700      -2.37844700
H       -1.61932200      -2.16007900      -0.70203000
H       -2.81010100      -0.87820800      -0.68468700
H       -1.31380600      -0.59662200       1.28164700
H       -0.65006000       1.57085500       0.93322500
H        0.99042600      -0.16074800      -0.79749100
H        0.79503800       0.25062600       2.27169500
H        1.78543500      -0.99228600       1.52846900
H        2.17853400       2.02005200       1.13283800
H        3.17208900       0.76584900       0.40509600
H        3.16693000       0.97853400       2.15275500
