18
Properties=species:S:1:pos:R:3 pbc="F F F"
C        2.95443600       1.71603600       0.52009900
C        2.24984400       0.63069400       0.19934900
C        0.84747500       0.65527300      -0.34352900
C       -0.12051600      -0.20772100       0.48541600
C       -1.53360000      -0.20167500      -0.08194500
C       -1.97161900      -1.23680400      -1.06018000
N       -2.46486100      -1.26037300       0.31821400
H        3.96592300       1.63751400       0.89937500
H        2.54031900       2.71191300       0.41200400
H        2.69809100      -0.35571200       0.32526400
H        0.85742900       0.28236100      -1.37694400
H        0.48084900       1.68554600      -0.38871100
H       -0.13826400       0.16179000       1.51740900
H        0.25388700      -1.23640700       0.53249800
H       -1.99549800       0.79028800      -0.15458800
H       -1.26575300      -2.01743200      -1.35104000
H       -2.71747700      -0.99100800      -1.81756400
H       -1.98159100      -1.98106300       0.85953700
