20
Properties=species:S:1:pos:R:3 pbc="F F F"
C       -1.29487600      -1.67730400       1.10018900
C       -1.62094100      -0.19695300       0.94581600
C       -1.00538200       0.44915600      -0.30568000
C        0.53411900       0.48156800      -0.31709400
N        1.16730900       1.12658600       0.83138800
C        1.28437800      -0.66159000      -0.93999900
C        1.22190600       0.66466500      -1.64309500
H       -1.77893500      -2.08673200       1.98457100
H       -0.22377700      -1.83653300       1.20069800
H       -1.63722400      -2.24498600       0.23737300
H       -1.28612900       0.34419700       1.83782000
H       -2.70811000      -0.07069900       0.90502300
H       -1.38412000       1.47642800      -0.38362900
H       -1.35817300      -0.07752000      -1.19772300
H        0.96866400       0.61566400       1.68909200
H        0.82830400       2.08001700       0.94292000
H        0.71594900      -1.48155700      -1.36731500
H        2.23443900      -0.94704000      -0.50207000
H        0.61228600       0.72957800      -2.53901600
H        2.13044000       1.25583000      -1.66828200
