20
Properties=species:S:1:pos:R:3 pbc="F F F"
C       -1.10114700      -0.46062600      -3.02751000
C       -0.20048000       0.49027600      -2.30322600
C        0.02739200       0.54742700      -0.98370000
C       -0.58107500      -0.32851000       0.07949600
C        0.45510700      -0.94318700       1.03904200
C        1.16864500       0.06423000       1.94892900
N        0.25586200       0.65362400       2.93211100
H       -0.55363000      -0.98220800      -3.81400800
H       -1.91617400       0.07755500      -3.51535900
H       -1.53854400      -1.20445000      -2.36691700
H        0.31541300       1.20903800      -2.94085100
H        0.71692100       1.31164100      -0.62356800
H       -1.15886500      -1.13654000      -0.37921300
H       -1.29989500       0.26378800       0.66321600
H        1.20646800      -1.48643400       0.45644600
H       -0.04974100      -1.68687300       1.66416700
H        1.66934700       0.84076600       1.33302400
H        1.97174600      -0.45539600       2.49264300
H       -0.51200900       1.13308300       2.46905600
H        0.74727600       1.32301200       3.51840000
