18
Properties=species:S:1:pos:R:3 pbc="F F F"
C       -2.42810300       0.28965300       1.32080800
C       -1.61390100      -0.55316100       0.68484800
C       -1.31771700      -0.49624800      -0.78871300
C        0.18309100      -0.59861900      -1.10894000
C        1.00154200       0.52948600      -0.49312100
C        2.48097700       0.42171300      -0.34311400
N        1.60375700       0.29133100       0.82036400
H       -2.61756500       0.19516300       2.38295800
H       -2.92688500       1.09829600       0.79866200
H       -1.12391200      -1.35083400       1.24290900
H       -1.73076600       0.42321300      -1.21724200
H       -1.83417600      -1.32881300      -1.28715900
H        0.30986400      -0.59298700      -2.19950100
H        0.57056100      -1.55808300      -0.75393800
H        0.59800500       1.53715900      -0.65995900
H        3.08774200       1.32698300      -0.41535800
H        2.99349300      -0.49330900      -0.64369700
H        1.61200900       1.14695500       1.37917100
