16
Properties=species:S:1:pos:R:3 pbc="F F F"
C       -1.89942000       0.17100000       0.46710700
C       -0.59519300      -0.13439400       1.16852900
C        0.52851000      -0.93103100       0.55645200
N        0.67749300       0.52704400       0.80850000
C        0.69203600       1.19169300      -0.52214000
C        0.59349400       0.07683600      -1.53351900
C        0.52272700      -1.11447500      -0.92292500
H       -2.68614200      -0.48950400       0.83073000
H       -1.82641400       0.04429400      -0.61050300
H       -2.21527300       1.19639100       0.66360500
H       -0.70072700      -0.23538200       2.25780200
H        1.10640100      -1.61216700       1.19175600
H        1.62604700       1.77042600      -0.63985200
H       -0.13011500       1.92045600      -0.61109500
H        0.56956000       0.23875400      -2.60765000
H        0.46128200      -2.08034900      -1.41531400
