15
Properties=species:S:1:pos:R:3 pbc="F F F"
C       -1.28826200       1.90886600      -1.80436700
C       -0.83259900       0.47868700      -1.53689800
C       -0.31357600       0.29263900      -0.11670300
N        1.09146200       0.59764500       0.14080800
C        0.65843100      -0.80769600       0.20913600
C        0.61269800      -1.44427600       1.51422000
N        0.57578900      -1.95297000       2.54776200
H       -1.65766500       2.01200300      -2.82220100
H       -0.46654200       2.60816200      -1.67030000
H       -2.08846800       2.19748800      -1.12557100
H       -0.04723100       0.20245600      -2.24628700
H       -1.66885400      -0.20930800      -1.70969600
H       -1.01644100       0.57143100       0.67826500
H        1.21932500       0.98168000       1.08066900
H        1.03496100      -1.44595000      -0.59719900
