16
Properties=species:S:1:pos:R:3 pbc="F F F"
C        0.80718800      -0.45805000      -1.75271300
C        0.66341800      -0.82592400      -0.26357200
C       -0.71279500      -1.25801000       0.03943900
N       -1.77346100      -1.64039500       0.27202700
C        1.14283000       0.29798500       0.65180700
C        0.48874300       1.42642000       0.95553100
C       -0.86952900       1.83735100       0.48870300
H        1.84089800      -0.20675300      -1.97903400
H        0.18816000       0.39949900      -2.00472800
H        0.51071300      -1.29116300      -2.38655800
H        1.30536400      -1.70230500      -0.07116500
H        2.13895600       0.15448900       1.06857400
H        0.98576800       2.13322500       1.62115400
H       -1.29090800       1.13973400      -0.22891900
H       -0.82858200       2.82522700       0.02731500
H       -1.55527100       1.91217500       1.33401400
