17
Properties=species:S:1:pos:R:3 pbc="F F F"
C       -1.69809500      -1.01926900       1.30462200
C       -0.92447300      -1.37996200       0.05380500
N       -1.17944200      -0.64902200      -1.19535900
C        0.12840400      -0.49040200      -0.53591800
C        0.49436800       0.84782100       0.06426300
C        1.86032700       1.07198300       0.62293900
N        1.46905800       1.68811400      -0.64329400
H       -2.66089600      -1.52928200       1.32066000
H       -1.88913400       0.04984700       1.36670900
H       -1.15538100      -1.31710200       2.20175000
H       -0.79554100      -2.45922100      -0.09489400
H       -1.76638800       0.16986700      -1.01378900
H        0.95035500      -0.98034300      -1.07429100
H       -0.33660400       1.41184900       0.50405100
H        2.58479000       0.25546300       0.58021100
H        2.00218600       1.76374900       1.45465100
H        1.87610600       1.18051100      -1.43274500
