20
Properties=species:S:1:pos:R:3 pbc="F F F"
C       -2.09321800      -0.35874500      -0.59287300
C       -0.56605300      -0.33951100      -0.55798200
C        0.06447400      -1.60470800       0.06218700
N        1.25877200      -1.15912000       0.80530200
C        1.43105900       0.29048500       0.64305700
C        0.03478200       0.81716400       0.28101500
C        0.04473000       2.16772300      -0.43101900
H       -2.46032700      -1.19089200      -1.19159000
H       -2.48416500       0.55999200      -1.02672500
H       -2.50947300      -0.45891400       0.40815500
H       -0.20006800      -0.23738000      -1.59281900
H        0.33075600      -2.34613900      -0.70849900
H       -0.64821300      -2.11090200       0.74069300
H        2.09521600      -1.67611800       0.53464100
H        2.15697200       0.52859500      -0.16029700
H        1.82530500       0.75208200       1.56459900
H       -0.55267500       0.91449400       1.20760400
H        0.61321300       2.12070700      -1.35870200
H        0.49406800       2.93640400       0.19571400
H       -0.96665700       2.48746400      -0.67620600
