20
Properties=species:S:1:pos:R:3 pbc="F F F"
C       -0.33066300      -0.06113600      -2.14133500
C       -0.70391400      -0.20370200      -0.65382500
N       -0.11701500      -1.42041600      -0.04619600
C        1.11491100      -1.07206800       0.68582100
C        1.23774400       0.45675100       0.63819900
C       -0.15551300       0.95874500       0.21342400
C       -1.05767200       1.24607100       1.41788800
H       -0.67146200      -0.92701500      -2.70705500
H        0.74645800       0.02021600      -2.27377600
H       -0.78999800       0.82425600      -2.57752000
H       -1.81046700      -0.25017600      -0.58575100
H        0.04619800      -2.14832000      -0.74242700
H        1.99601000      -1.56441900       0.24115300
H        1.06047100      -1.43365000       1.73004700
H        1.98456600       0.75580500      -0.10498000
H        1.55918800       0.87897000       1.59418200
H       -0.06994700       1.88005000      -0.38259000
H       -1.18421400       0.35613500       2.03026300
H       -2.04467000       1.57493000       1.09577800
H       -0.63238100       2.02816400       2.04502000
