19
Properties=species:S:1:pos:R:3 pbc="F F F"
C       -1.36740700       1.55936400       0.83665900
C        0.10802300       1.23872100       0.97648000
C        1.10716700       1.73007700      -0.02343800
N        0.80730000       0.30182900       0.08745200
C        0.08752800      -0.33113900      -1.02723100
C       -0.63821200      -1.60588700      -0.58326900
N        0.29670400      -2.59975100      -0.05711500
H       -1.61553900       2.44901200       1.41535800
H       -1.98610400       0.74370100       1.21102800
H       -1.64820200       1.74950700      -0.19665800
H        0.44294900       1.16470000       2.02025600
H        2.10739300       2.03141900       0.29708600
H        0.73369700       2.25551200      -0.90707000
H        0.82688100      -0.58780500      -1.80408000
H       -0.63752800       0.35554300      -1.50958700
H       -1.22016100      -1.99935700      -1.44688400
H       -1.37568900      -1.36672100       0.19733800
H        1.04215700      -2.78610900      -0.72227000
H       -0.18047800      -3.47076700       0.15791400
