20
Properties=species:S:1:pos:R:3 pbc="F F F"
C        0.40958200       2.10459200      -1.88065200
C        0.42702100       1.27351100      -0.60152400
C       -0.71144500       0.26124700      -0.55283700
C       -0.55033000      -1.10516900      -1.15375800
C       -0.67792600      -0.95429000       0.33568700
C        0.50193600      -1.27689600       1.25820100
N        0.42547500      -0.60094900       2.56183500
H        1.22675000       2.82297100      -1.88775200
H       -0.52338800       2.65670300      -1.97614200
H        0.51159700       1.47067300      -2.75883400
H        0.35899600       1.94454400       0.26414900
H        1.38850800       0.75801700      -0.51827900
H       -1.69846900       0.71140600      -0.68184500
H        0.42631800      -1.36855500      -1.54864800
H       -1.38519000      -1.53111700      -1.70247900
H       -1.64644100      -1.24352000       0.75101500
H        0.54049300      -2.36222400       1.43526200
H        1.44914000      -1.00415400       0.77431100
H       -0.42313500      -0.87400600       3.05187700
H        0.40346100       0.40793300       2.43381600
