14
Properties=species:S:1:pos:R:3 pbc="F F F"
C       -1.62192600       0.08029300       0.72919800
C       -0.17348100       0.30866700       0.39936300
C        0.44958400      -0.38379400      -0.59076200
C       -0.19587200      -1.37632800      -1.39440500
N       -0.68237500      -2.18418700      -2.06425500
C        0.51887900       1.32330000       1.20973600
C        1.80251200       1.69491000       1.09905900
H       -2.05544800      -0.70440000       0.11554700
H       -2.19856400       0.99419700       0.57777500
H       -1.73828400      -0.19564600       1.77802500
H        1.49917300      -0.20510000      -0.82007700
H       -0.09536300       1.80523000       1.96999300
H        2.47067000       1.25723100       0.36603600
H        2.21626400       2.45550200       1.74935600
