18
Properties=species:S:1:pos:R:3 pbc="F F F"
C        1.20865900       1.99910300      -1.28781400
C        1.24092400       1.32073100      -0.13983300
C        1.31796500      -0.17942800      -0.03595700
C        0.48349600      -0.77252800       1.10987000
C       -1.02367600      -0.86885100       0.88085800
C       -1.77229600      -0.03874100      -0.10259100
N       -1.55599300      -1.46697700      -0.34710300
H        1.18764800       3.08179300      -1.29972300
H        1.19922900       1.49235800      -2.24588200
H        1.25082000       1.86789000       0.80374500
H        2.36768700      -0.45326400       0.14162500
H        1.04580200      -0.64009600      -0.99140600
H        0.66293200      -0.18646100       2.01973500
H        0.85953000      -1.78002300       1.32884200
H       -1.56847500      -1.18000600       1.78193200
H       -1.22678900       0.66428800      -0.73156700
H       -2.80503700       0.24286200       0.11095300
H       -0.81182200      -1.60221400      -1.03572600
