19
Properties=species:S:1:pos:R:3 pbc="F F F"
C       -1.61850500       0.69563200       2.09522500
C       -0.17826600       1.04861400       1.75249400
C        0.28104400       0.58046400       0.37416500
N       -0.67318400       0.63200900      -0.74198000
C       -0.19361400      -0.67795500      -0.27894200
C        0.71772500      -1.53109500      -1.17765500
N        1.61613400      -0.78168800      -2.05969300
H       -1.91304200       1.16232900       3.03320300
H       -1.74944900      -0.37938000       2.20397300
H       -2.29328600       1.03908000       1.31503100
H        0.49544600       0.63245300       2.51235700
H       -0.05314000       2.13716800       1.80801000
H        1.30475800       0.89803600       0.12665100
H       -0.19391700       0.90059900      -1.60550100
H       -0.96005600      -1.26108500       0.24568000
H        1.32288100      -2.19799900      -0.54357500
H        0.09407800      -2.18666600      -1.80256000
H        2.20566500      -0.14517400      -1.52923800
H        1.08911100      -0.24556800      -2.74405400
