12
Properties=species:S:1:pos:R:3 pbc="F F F"
C        0.22185200       0.51919300       3.01910400
C       -0.04966900       0.51229700       1.84023400
C       -0.39881200       0.50213200       0.43085500
N        0.49953800       1.15848800      -0.52573100
C        0.43705800      -0.30587000      -0.53489100
C       -0.18216900      -0.96180700      -1.67362700
C       -0.69666100      -1.57298600      -2.58138200
H        0.46374600       0.53303600       4.05378900
H       -1.46542100       0.62573700       0.21510100
H        1.35308800       1.47822800      -0.06021000
H        1.30399000      -0.83577100      -0.12108200
H       -1.14176800      -2.06840400      -3.40924700
