19
Properties=species:S:1:pos:R:3 pbc="F F F"
C       -1.80256000       0.31433700       1.01867300
C       -0.29719900       0.15238300       1.02107600
C        0.58984100       0.92125100       0.03882100
C        0.44623300      -0.58076700      -0.07542100
C       -0.29376400      -1.22202000      -1.23731100
N        1.58121600      -1.40774900       0.36320900
N        0.02888100       1.82041300      -0.95797200
H       -2.10640000       1.09679200       1.71403100
H       -2.30180600      -0.60600800       1.32239500
H       -2.17602700       0.58746700       0.03387900
H        0.12718100       0.03063000       2.01974900
H        1.53845900       1.28005800       0.45775900
H       -1.18072700      -0.66031100      -1.51888700
H       -0.60654000      -2.23179700      -0.97680200
H        0.35066600      -1.29475700      -2.11402900
H        2.05689000      -0.97970000       1.15327800
H        2.25090300      -1.52551500      -0.39464100
H       -0.49956000       2.57291100      -0.52086800
H       -0.57902800       1.33048200      -1.60754800
