20
Properties=species:S:1:pos:R:3 pbc="F F F"
C       -0.52538800       1.69150500       0.70328500
C        0.35875900       0.45872600       0.47687700
C       -0.43456900      -0.84935200       0.31139400
C       -1.83218700      -1.03690700       0.79229500
N       -1.54507400      -0.93936800      -0.64113400
C        1.30010000       0.69075200      -0.73355900
C        2.40517000      -0.34971600      -0.86413500
H        0.08547100       2.59040500       0.76026500
H       -1.08623700       1.61275200       1.63236600
H       -1.23728700       1.82864100      -0.10932500
H        0.99414400       0.33954700       1.37148800
H        0.20304600      -1.74265200       0.31085800
H       -2.36268500      -0.20327600       1.25479200
H       -2.15524800      -2.02206000       1.13397400
H       -1.79349300      -0.01107300      -0.99152200
H        1.75503300       1.68289400      -0.63832400
H        0.70697900       0.71210000      -1.65319900
H        3.01010100      -0.39582200       0.03984300
H        3.06425500      -0.10325700      -1.69412800
H        2.00012000      -1.34267200      -1.04608400
