18
Properties=species:S:1:pos:R:3 pbc="F F F"
C       -0.22442900      -0.46552900      -2.11085300
C       -0.80751900       0.20558700      -0.89358600
C       -1.89704200       0.98720000      -1.00739800
C       -0.12813400      -0.01548700       0.41590800
C       -0.80527000       0.03486200       1.57670800
C        1.35586600      -0.33197600       0.37106800
N        1.98407400      -0.33434900       1.68989900
H       -0.84990600      -0.29904000      -2.98410900
H       -0.12709300      -1.54085400      -1.95949100
H        0.77259700      -0.08182100      -2.33386400
H       -2.38223600       1.13189100      -1.96493400
H       -2.31743900       1.50041100      -0.15172400
H       -1.87114400       0.22659000       1.59951100
H       -0.30541600      -0.13999600       2.52078100
H        1.85382200       0.38158900      -0.32266000
H        1.49722000      -1.32617600      -0.08389000
H        1.91319600       0.58224400       2.12474100
H        2.96704700      -0.58233900       1.61526200
