16
Properties=species:S:1:pos:R:3 pbc="F F F"
C       -1.57749000      -0.16513000       0.06952400
C       -0.10898400      -0.42026500      -0.13059400
C        0.45358700      -0.88309700      -1.26195800
C       -0.23944100      -1.23724800      -2.53984100
C        0.76898900      -0.13762400       1.08237700
C        0.62727200       1.23034400       1.58582300
N        0.52579500       2.30250400       1.99158400
H       -2.16406700      -0.41668700      -0.80922000
H       -1.75303500       0.88478300       0.30751400
H       -1.95772700      -0.74766900       0.91045600
H        1.53596100      -1.01800400      -1.27308700
H       -1.31806300      -1.12254600      -2.47919200
H       -0.02280800      -2.26977700      -2.81827700
H        0.12255600      -0.60983300      -3.35616500
H        1.82397800      -0.31482600       0.84370900
H        0.50903600      -0.82483900       1.90117600
