18
Properties=species:S:1:pos:R:3 pbc="F F F"
C       -1.10003800       1.18104300       1.08348300
C        0.40157900       0.99216900       1.15213800
C        1.31866300       1.62464300       0.15443600
N        1.13148000       0.17150400       0.17307700
C        0.39407100      -0.42667500      -0.95429200
C       -0.30606200      -1.69321100      -0.53901600
C       -1.46306700      -2.11735500      -1.04861200
H       -1.41141600       1.98296600       1.75242100
H       -1.62243400       0.27541400       1.39016600
H       -1.43211000       1.43841900       0.08063100
H        0.78566800       0.87386200       2.17466200
H        2.30716900       1.97670300       0.45835000
H        0.87351100       2.17575700      -0.67833100
H        1.13325800      -0.67270100      -1.73944800
H       -0.31992200       0.27723300      -1.42365000
H        0.20184400      -2.29678900       0.21300900
H       -1.99830500      -1.54260300      -1.79632100
H       -1.90850200      -3.05247700      -0.73184700
