20
Properties=species:S:1:pos:R:3 pbc="F F F"
C       -1.54353300      -2.35048700      -0.12346500
C       -1.72058300      -0.91250300      -0.59662200
C       -1.10850000       0.13160300       0.34810700
C        0.42830400       0.12394600       0.35491400
C        1.14039100       1.26718000       1.10814200
C        1.90881600       1.53567800      -0.19050200
N        1.06216500       0.56730200      -0.91905800
H       -2.01835300      -3.04423100      -0.81452300
H       -1.99055700      -2.49791100       0.85802200
H       -0.49142000      -2.61940300      -0.05277500
H       -2.79062500      -0.70457600      -0.70752300
H       -1.28004700      -0.79789200      -1.59193900
H       -1.47304300      -0.03320600       1.36867100
H       -1.45769300       1.12542700       0.04966300
H        0.79685400      -0.87199400       0.67262400
H        1.74466200       0.97068400       1.96969400
H        0.48116300       2.08333100       1.41457300
H        2.97314600       1.25078400      -0.15077000
H        1.85195000       2.56193200      -0.58860800
H        1.58943900      -0.16655800      -1.39714600
