18
Properties=species:S:1:pos:R:3 pbc="F F F"
C       -0.96224500      -0.59975100       1.80172600
C       -1.13889700      -1.10073500       0.57199600
C       -0.60048600      -0.61852500      -0.72150600
C       -0.17866500       0.82587100      -1.01757600
C        0.85998900      -0.24689100      -0.98367300
C        1.92542200      -0.33428700       0.08520300
N       -0.21035700       1.87529300      -0.02367700
H       -1.44156400      -1.06836600       2.65209400
H       -0.35546200       0.27211600       2.00500700
H       -1.78357700      -1.97625200       0.47703200
H       -1.06560900      -1.12089900      -1.57233300
H       -0.46969100       1.17197200      -2.01935100
H        1.21539700      -0.57181500      -1.96508900
H        1.51713500      -0.19612700       1.08283000
H        2.69579000       0.42126300      -0.07125600
H        2.41070900      -1.30892400       0.05892000
H        0.45774200       1.70954100       0.72299600
H       -1.13907000       1.98634900       0.37787100
