15
Properties=species:S:1:pos:R:3 pbc="F F F"
C       -2.23005200       0.05514200      -1.03556000
C       -0.71807100       0.00040600      -1.23380100
C        0.06628900      -1.11280500      -0.50585700
C        0.97803400       0.00544800       0.04320200
N        0.04896500       1.03373200      -0.48192300
C        1.19573100       0.04410600       1.49987400
N        1.38695200       0.04172600       2.63466300
H       -2.71303800      -0.78559100      -1.52972600
H       -2.63831900       0.97294300      -1.45377900
H       -2.48666200       0.02319200       0.02064500
H       -0.48400900       0.02431600      -2.31711400
H        0.55970000      -1.85417300      -1.13899900
H       -0.50708600      -1.63283200       0.26337200
H        1.97045400       0.02778400      -0.45187000
H        0.49596200       1.74236900      -1.06885600
