19
Properties=species:S:1:pos:R:3 pbc="F F F"
C       -0.06305100       0.16288800      -1.85020900
C       -0.53997100       0.04351100      -0.39046200
N       -2.01859100       0.08201300      -0.37451500
C        0.05012700       1.17840400       0.47930900
N        1.37004800       0.68262200       0.87358300
C        1.30494800      -0.78095000       1.03398100
C        0.05179200      -1.24539600       0.27866400
H        1.02271100       0.17571100      -1.89964400
H       -0.43595900       1.07854600      -2.30460500
H       -0.42063300      -0.67634100      -2.44566700
H       -2.37246900      -0.05616500       0.56935800
H       -2.40294000      -0.64488300      -0.97319000
H       -0.60639400       1.36581600       1.35436700
H        0.13283500       2.13123500      -0.06560200
H        1.72679700       1.14541200       1.71042700
H        1.25052900      -1.06912000       2.10073900
H        2.22111100      -1.25420600       0.63895100
H       -0.67722900      -1.67786300       0.97150100
H        0.27836600      -2.02133200      -0.45781400
