20
Properties=species:S:1:pos:R:3 pbc="F F F"
N       -1.70337300      -2.11155400      -0.97755400
C       -2.08947200      -1.57594100       0.32799600
C       -1.59932000      -0.13030600       0.50072100
C       -0.09783300      -0.02446500       0.55807100
C        0.63286100       0.77502800      -0.22828900
C        2.13504500       0.87874500      -0.16714800
C        2.62126800       2.31201800       0.03877600
H       -1.94924000      -3.09510400      -1.05210200
H       -0.70120200      -2.01107900      -1.11871300
H       -1.69823600      -2.19555200       1.16378200
H       -3.18669600      -1.60265700       0.41334900
H       -2.02381600       0.26673600       1.43355000
H       -1.98688100       0.49200200      -0.31122000
H        0.40241700      -0.64503300       1.30336500
H        0.13432700       1.39830700      -0.97111800
H        2.56054700       0.49458000      -1.10469000
H        2.52044400       0.23821500       0.63274400
H        2.26888200       2.96162300      -0.75998300
H        3.70870100       2.35248500       0.05159300
H        2.25906300       2.71589200       0.98155000
