18
Properties=species:S:1:pos:R:3 pbc="F F F"
C        1.62132100      -1.06920300       2.08671900
C        0.94272200       0.26386500       2.05936100
C       -0.06862200       0.64258200       1.26635000
C       -0.77103600      -0.19088900       0.22573800
C       -0.86411300       0.52223000      -1.12236200
C       -1.15525700      -0.22739700      -2.37771100
N        0.19280500       0.26977000      -2.10235800
H        1.52588400      -1.52805600       3.07258300
H        2.68936000      -0.95818500       1.89252200
H        1.21401900      -1.75858000       1.35234000
H        1.33313300       0.99342700       2.76983600
H       -0.44560300       1.66107500       1.37356600
H       -1.79198300      -0.40808500       0.57837000
H       -0.27604500      -1.15549900       0.09408700
H       -1.23382900       1.55567300      -1.07138700
H       -1.72066500       0.26754000      -3.17051100
H       -1.26524900      -1.31270700      -2.35079600
H        0.39124800       1.10787700      -2.65267100
