15
Properties=species:S:1:pos:R:3 pbc="F F F"
C       -2.52266400      -0.25783800      -0.24025200
C       -1.17895000      -0.23707600      -0.12041000
C       -0.25090800      -1.43897200      -0.24861800
N        1.05382100      -0.80530800      -0.14773800
C        0.85890800       0.53259200       0.15324500
N       -0.40436800       0.91333800       0.14347700
C        2.01528500       1.44028100       0.40923900
H       -3.04837800      -1.18158900      -0.44035500
H       -3.09845900       0.65128400      -0.14197500
H       -0.37224200      -1.97970400      -1.20358900
H       -0.40268600      -2.18495300       0.55322100
H        1.88541200      -1.31711600       0.12668900
H        2.65170400       1.05560300       1.20732600
H        1.66926200       2.42997600       0.68993300
H        2.63919500       1.53636500      -0.48064300
