19
Properties=species:S:1:pos:R:3 pbc="F F F"
C       -1.41615700       1.68453700       0.95138800
C        0.04510400       1.29719500       1.03790600
N        0.95059100       1.78986500      -0.01028200
C        0.71305900       0.34432900       0.09548800
C       -0.00141700      -0.34063600      -1.06218300
C       -0.56722900      -1.71375200      -0.68208100
N        0.49672500      -2.63709100      -0.27722400
H       -1.57987400       2.66958600       1.38760900
H       -2.04152500       0.97626800       1.49479000
H       -1.75753400       1.71803600      -0.07971900
H        0.45329400       1.32504500       2.05796000
H        1.86036300       2.04013300       0.38325200
H        1.54251000      -0.23963500       0.51500500
H        0.70205300      -0.46149400      -1.89591900
H       -0.81003600       0.29565100      -1.43266600
H       -1.15291500      -2.11301000      -1.53787400
H       -1.27609000      -1.61060200       0.15239800
H        1.17688000      -2.74936200      -1.02476300
H        0.11150300      -3.55007000      -0.05063800
