15
Properties=species:S:1:pos:R:3 pbc="F F F"
C       -1.91847200      -0.41847700       0.63801000
C       -0.39571300      -0.29045900       0.75615300
N        0.29806900      -1.52291500       0.30391900
C        1.14274700      -1.16417400      -0.61861100
N        1.14954800       0.19596000      -0.90222000
C        0.20537400       0.82371200      -0.09668600
C       -0.07207500       2.14688400      -0.09846700
H       -2.27837300      -1.24653900       1.24414500
H       -2.21632400      -0.60050500      -0.39212700
H       -2.40604100       0.49372000       0.97687300
H       -0.14730600      -0.12407400       1.82398400
H        1.80970800      -1.84965200      -1.14434500
H        1.71341500       0.65741800      -1.60524600
H        0.44708600       2.82718100      -0.75951500
H       -0.82664800       2.54622800       0.56194000
