16
Properties=species:S:1:pos:R:3 pbc="F F F"
C       -0.43932400      -0.13345600      -2.34536900
C       -0.37200500      -0.03311900      -1.01235800
C       -0.41188100      -1.19263200      -0.03813700
N       -0.04495700      -0.65785400       1.29402100
C        0.10435400       0.80521000       1.17290900
C       -0.25023400       1.25701300      -0.23429100
C        1.30388200      -0.06754200       1.32437900
H       -0.52751300      -1.09699300      -2.83268600
H       -0.41109700       0.74369700      -2.98044300
H        0.26022900      -2.01277600      -0.32807800
H       -1.42607100      -1.62380700       0.01248500
H       -0.23783900       1.40030000       2.02545100
H        0.49619600       1.93359200      -0.66712400
H       -1.20189000       1.80499300      -0.23901500
H        1.80704800      -0.12715200       2.29082300
H        1.94688600      -0.22972600       0.45764000
