20
Properties=species:S:1:pos:R:3 pbc="F F F"
C        1.43871200       1.19975100      -1.16007500
C        0.90261300      -0.13470200      -0.61716400
C       -0.62126100      -0.17429200      -0.64367200
C       -1.41334400       0.62014700       0.08680400
C       -2.90899600       0.57970300       0.04836000
C        1.46384000      -0.40994600       0.79696500
N        1.08864200      -1.74715300       1.25818900
H        2.52751000       1.19790500      -1.18286700
H        1.11804200       2.03353200      -0.53800600
H        1.08058400       1.38051900      -2.17128000
H        1.26528900      -0.93535300      -1.27867300
H       -1.08162800      -0.89928000      -1.31573700
H       -0.96843600       1.35290400       0.76053300
H       -3.26965100      -0.17973200      -0.64177900
H       -3.31718900       1.54360600      -0.26084700
H       -3.31988700       0.36628200       1.03687800
H        1.11551000       0.38338200       1.49227700
H        2.56172200      -0.33793000       0.77277800
H        0.07668300      -1.85192900       1.24672500
H        1.42157000      -1.90779600       2.20537200
