20
Properties=species:S:1:pos:R:3 pbc="F F F"
C        0.34676700      -1.03245200       2.41616500
C       -0.48784900      -1.66202000       1.30838400
C       -0.23432400      -1.04257000      -0.07467300
C       -0.66378200       0.41762100      -0.16195800
N        0.31523300       1.48949300       0.08103000
C       -0.23050300       1.31883100      -1.27541000
C        0.68033300       0.86314500      -2.39610100
H        0.13018200      -1.49994900       3.37460500
H        0.14017000       0.03122200       2.50389700
H        1.41048600      -1.15101400       2.21891500
H       -1.55097200      -1.56860200       1.55550900
H       -0.27663700      -2.73587200       1.25977900
H       -0.78325400      -1.62769600      -0.82405900
H        0.82708100      -1.13560800      -0.32674600
H       -1.64682200       0.62232000       0.28113100
H        1.25885400       1.09631800       0.12942400
H       -0.92609100       2.11643500      -1.56499100
H        1.42219000       0.14814900      -2.04716300
H        1.21304900       1.71007500      -2.82807300
H        0.11127200       0.39244300      -3.19788400
