18
Properties=species:S:1:pos:R:3 pbc="F F F"
C       -1.36847700       0.36947200       1.72771600
C        0.13663300       0.28082400       1.59302700
C        0.87123000       1.18626500       0.62994600
C        0.79819900      -0.29766200       0.37858400
N        0.02789900      -0.92935600      -0.69659200
C       -0.75402600      -0.11970300      -1.62492600
C        0.51784400      -0.75549600      -2.06661400
H       -1.65352300       1.18193700       2.39655900
H       -1.77657300      -0.55330100       2.13927600
H       -1.84251500       0.54484800       0.76566200
H        0.64976900       0.09809300       2.54027000
H        1.82125500       1.60388000       0.95050500
H        0.27606100       1.85540800       0.01851300
H        1.72275200      -0.85427700       0.57287600
H       -0.77387100       0.96415700      -1.49184700
H       -1.70867700      -0.55468100      -1.92966800
H        1.38931900      -0.11418600      -2.21749900
H        0.49229500      -1.64858500      -2.69490000
