20
Properties=species:S:1:pos:R:3 pbc="F F F"
C       -1.58032100       0.32002000       1.32524200
C       -0.05423200       0.30291800       1.17835500
C        0.44358500       1.35618600       0.16769500
C        0.10586900       0.96351800      -1.27195400
C        0.60234900      -0.44829500      -1.58828400
N        0.07663100      -1.41244700      -0.61288400
C        0.46013800      -1.09025100       0.76759900
H       -1.93422800       1.31227200       1.60084800
H       -1.90120000      -0.37772300       2.09712000
H       -2.06612700       0.03402700       0.39538600
H        0.38057200       0.54570600       2.16325000
H        1.53100400       1.45678000       0.26825600
H        0.01552900       2.33748700       0.40279200
H        0.55162400       1.67989500      -1.97140900
H       -0.97750400       1.01159500      -1.42283500
H        1.71504200      -0.45226400      -1.60626200
H        0.27362400      -0.75152100      -2.59430400
H        0.40075300      -2.35368500      -0.84918100
H        1.56492600      -1.11919800       0.89977400
H        0.04524500      -1.86082400       1.43483600
