16
Properties=species:S:1:pos:R:3 pbc="F F F"
C        0.19921500      -1.21127900      -1.12120100
C       -0.18479900      -0.83569700       0.31330100
C       -1.65709200      -0.77397900       0.43838600
N       -2.80262000      -0.73635800       0.53964200
C        0.40736600       0.43214100       0.92011300
C        1.22534400       1.37624800       0.43479800
C        1.84452600       1.54408700      -0.91634000
H        1.27124100      -1.37180700      -1.20670500
H       -0.10074700      -0.44565800      -1.83189600
H       -0.29920300      -2.13734900      -1.40181500
H        0.13364300      -1.67031100       0.96860600
H        0.08282000       0.56792000       1.95287600
H        1.47915400       2.18097800       1.12714800
H        1.77709000       0.66449600      -1.54529700
H        2.89789100       1.80373900      -0.81065200
H        1.36908700       2.37336500      -1.44410700
