18
Properties=species:S:1:pos:R:3 pbc="F F F"
C       -1.04331000      -1.24058900       2.39113100
C       -1.77025700      -0.40046400       1.38882400
C       -1.36864900      -0.09400100       0.14760100
C       -0.09422400      -0.53241500      -0.52723200
C        0.55737500       0.59448100      -1.32376700
C        1.62314200       1.44402600      -0.72309000
N        1.95262700       0.44899800      -1.74641200
H       -0.95168300      -0.71153300       3.34045500
H       -0.04654300      -1.51718700       2.05741100
H       -1.59675400      -2.15936800       2.59424600
H       -2.73208900      -0.01131700       1.72359700
H       -2.02635200       0.52659000      -0.46218000
H       -0.32425600      -1.36049100      -1.21560500
H        0.61750100      -0.93178700       0.20183800
H       -0.09024800       1.05345600      -2.08088400
H        1.94916400       1.23553700       0.29765600
H        1.73141200       2.48434900      -1.03369800
H        2.37700000      -0.37746700      -1.31875200
