20
Properties=species:S:1:pos:R:3 pbc="F F F"
C       -2.06182600      -1.46496900      -0.22624000
C       -1.86826800       0.02822400      -0.46765400
C       -1.11823100       0.74420400       0.66815900
C        0.40913300       0.72621000       0.59581900
C        1.14476900       1.21359000      -0.63222100
C        1.21238200      -0.23724700      -0.21559600
N        2.43305400      -0.79412100       0.35291900
H       -2.58918200      -1.92544700      -1.05958100
H       -2.64624300      -1.63774800       0.67550100
H       -1.11100500      -1.97890100      -0.10595500
H       -2.85402600       0.49223800      -0.58057200
H       -1.35033600       0.18666400      -1.41916500
H       -1.42831500       0.31270500       1.62692200
H       -1.44447300       1.79181800       0.69752300
H        0.87343100       1.03022700       1.53673800
H        2.01806600       1.83907100      -0.47685100
H        0.55480000       1.47010400      -1.50671400
H        0.67666200      -0.95045300      -0.84698900
H        2.84044300      -0.15450100       1.02983700
H        3.12105400      -0.97700300      -0.37472400
