22
Properties=species:S:1:pos:R:3 pbc="F F F"
N        0.18350500       1.02432600      -2.50555300
C       -0.14767900       1.13125600      -1.08078900
C        0.19549200      -0.17618800      -0.32967400
C       -0.27278400      -0.12064300       1.15981000
C        0.22560900      -1.32844300       1.96867800
C       -1.80245200      -0.02633700       1.27824200
C        1.69860900      -0.46647200      -0.45344200
H       -0.05124500       1.88528300      -2.99219900
H       -0.32955500       0.25904200      -2.93581200
H       -1.21908000       1.37970000      -0.93658200
H        0.42312800       1.96758400      -0.65155500
H       -0.34793700      -0.99853600      -0.82433500
H        0.15804200       0.78623200       1.61576900
H       -0.09145900      -2.26411200       1.51246300
H       -0.17572300      -1.29830000       2.97982700
H        1.30993700      -1.33990100       2.04380400
H       -2.28458400      -0.87460000       0.79580800
H       -2.19062200       0.88249300       0.82419900
H       -2.10304200      -0.02563200       2.32417000
H        2.28324100       0.22966400       0.14576500
H        2.01362200      -0.36146100      -1.48887100
H        1.93997400      -1.47676900      -0.13053700
