20
Properties=species:S:1:pos:R:3 pbc="F F F"
C        0.56541600      -2.50794200      -1.12134000
C        1.22771000      -1.29674200      -0.47315700
C        0.22602300      -0.38499200       0.22785000
C        0.50519200       1.07243300       0.45225600
N       -0.45379600       0.63808700      -0.58121200
C       -1.88275100       0.84507300      -0.34619700
C        0.05470600       1.78984600       1.70906300
H        1.30559400      -3.14953600      -1.59564400
H       -0.14934900      -2.19894700      -1.88065700
H        0.03076400      -3.10219300      -0.38230500
H        1.76973300      -0.72512100      -1.23266700
H        1.97714600      -1.63877900       0.25214400
H       -0.39767000      -0.87938500       0.98654700
H        1.43321000       1.47479700       0.02296200
H       -2.13414700       1.89992700      -0.49006600
H       -2.21565500       0.54576200       0.66024700
H       -2.45955600       0.26288800      -1.07253900
H       -0.78459100       1.28868000       2.18554200
H       -0.24496400       2.81510800       1.49142000
H        0.86827700       1.83412700       2.43264600
