15
Properties=species:S:1:pos:R:3 pbc="F F F"
C        0.14313900      -0.06001100       2.02119800
C       -0.78293400      -0.03274500       0.79556300
C       -0.59953200       1.23337900      -0.05319600
C        0.64142000       1.07092500      -0.89948100
N        1.07515100      -0.05559900      -1.35444900
N        0.26063000      -1.22522700      -1.13546700
C       -0.53565100      -1.22482700      -0.12116200
H       -0.05169900       0.79289600       2.67002700
H        1.18676200      -0.02341300       1.71820700
H       -0.00904500      -0.96849600       2.60068700
H       -1.82411300      -0.08470200       1.15206700
H       -0.51526200       2.12642500       0.57407700
H       -1.47501100       1.38431900      -0.69916500
H        1.24859800       1.96411800      -1.10916300
H       -1.10934800      -2.14568200       0.06514600
