18
Properties=species:S:1:pos:R:3 pbc="F F F"
C       -0.83843900      -0.08223800       2.35410300
C       -0.94019100      -0.12283700       0.82286400
C       -0.30742000      -1.36275700       0.22633800
C        0.66532600      -1.07955600      -0.64269400
C        0.88698900       0.42066000      -0.78871500
C       -0.20325000       1.04983200       0.11923500
N        0.79946200       0.90825800      -2.18043300
H       -1.33676000      -0.94260000       2.79758800
H       -1.30635500       0.81756700       2.74962700
H        0.19933900      -0.09155600       2.68035800
H       -2.01414200      -0.10171800       0.56476600
H       -0.62911500      -2.36476700       0.49902800
H        1.24311300      -1.81931700      -1.19043900
H        1.89771000       0.68511500      -0.41914900
H       -0.90130600       1.64055300      -0.47916000
H        0.23699400       1.73567400       0.84781400
H       -0.09794700       0.65346100      -2.58680400
H        1.53414800       0.49115600      -2.74738700
