18
Properties=species:S:1:pos:R:3 pbc="F F F"
C       -1.94719300       0.66063400      -0.28788600
C       -0.41786400       0.67765500      -0.10438500
C       -0.03401700      -0.04138400       1.20052600
C        1.29141100      -0.69147900       1.40072700
N        0.09054700      -1.49993700       1.18252900
C        0.26762900       0.06853300      -1.30859800
C        0.97089000       0.76345200      -2.20255100
H       -2.44203300       1.11591000       0.56881500
H       -2.31435300      -0.35838700      -0.38663400
H       -2.23758100       1.21261000      -1.17916200
H       -0.10099400       1.73073600      -0.01480600
H       -0.51237500       0.38204500       2.09498000
H        1.72727000      -0.70341000       2.40230200
H        2.01533300      -0.70706500       0.58523900
H       -0.23822500      -1.90538300       2.06132500
H        0.14709100      -1.00739500      -1.43110100
H        1.10586700       1.83534600      -2.10967500
H        1.43103300       0.28008400      -3.05598500
