20
Properties=species:S:1:pos:R:3 pbc="F F F"
C        0.00472700      -0.33486100      -2.25858800
C       -0.33844300      -0.29454100      -0.75997000
C       -0.16949000       1.15236100      -0.23908500
C       -0.66233100       1.60307100       1.09377900
N        0.77336600       1.51590700       0.82035000
C        0.48160500      -1.37584700      -0.01219000
C       -0.06710800      -1.77056600       1.35419200
H       -0.18995100      -1.32054800      -2.67710100
H        1.05415600      -0.10183600      -2.42772100
H       -0.59013200       0.38853900      -2.81341100
H       -1.40503000      -0.56340400      -0.66416400
H       -0.21486600       1.90067200      -1.04102600
H       -1.08972900       0.87149500       1.78168000
H       -1.05272200       2.61574000       1.21235900
H        1.17289800       0.68454400       1.26035900
H        1.52326400      -1.05289400       0.08363300
H        0.50405600      -2.27179100      -0.64178300
H       -0.00090900      -0.95829000       2.07424200
H        0.49290900      -2.61203600       1.75740700
H       -1.11127300      -2.06923600       1.28425000
