18
Properties=species:S:1:pos:R:3 pbc="F F F"
C       -0.91861400      -1.21894400       1.30831000
C       -0.46123200      -1.43140600      -0.11931500
C       -1.08657400      -0.68903100      -1.26373800
C        0.36538000      -0.46634100      -0.93370200
C        0.91161900       0.88520600      -0.50779400
C        0.17715800       1.87409200       0.32860300
N        1.33509300       1.15940600       0.87111300
H       -1.76184500      -1.87345400       1.52951200
H       -1.24289500      -0.19807600       1.49145900
H       -0.12786900      -1.46013000       2.01900800
H       -0.23146500      -2.47851000      -0.33022400
H       -1.77939500       0.10987400      -1.01863100
H       -1.33613000      -1.23791300      -2.16726200
H        1.05299600      -0.97255300      -1.61585500
H        1.59934600       1.30374500      -1.25469000
H       -0.80732300       1.62032300       0.72486200
H        0.33082500       2.94088400       0.15529500
H        1.03169200       0.40851300       1.49455100
