19
Properties=species:S:1:pos:R:3 pbc="F F F"
C       -1.94266400      -0.38024700       0.29979000
C       -0.42189900      -0.41274400       0.45375700
N        0.04602600      -0.48522400       1.84187900
C        0.40395900      -1.19229500      -0.55340700
C        0.49847000       0.31106400      -0.52218600
C       -0.05900500       1.12262800      -1.67911000
N        1.74558500       0.87408900       0.00391200
H       -2.39995200      -1.23251600       0.80364800
H       -2.24309800      -0.41371400      -0.74433800
H       -2.36342000       0.52324100       0.74275500
H       -0.26690400      -1.34911900       2.28109200
H       -0.32209100       0.29409500       2.38397200
H       -0.12076300      -1.65546100      -1.38339900
H        1.24639000      -1.75967000      -0.17289100
H       -0.92028000       0.63921700      -2.13306000
H        0.69776900       1.25202400      -2.45132700
H       -0.36447700       2.11730300      -1.35222800
H        2.04292000       0.33414700       0.81442100
H        1.59946100       1.83795600       0.29775000
