20
Properties=species:S:1:pos:R:3 pbc="F F F"
C       -0.55700500       0.43728500      -2.35532900
C       -0.86919700       0.99435100      -0.97285200
C       -0.35337700       0.17718000       0.23100900
N       -0.66776100       0.80027300       1.51887100
C       -0.38366400      -1.32892800       0.20909600
C        0.93643400      -0.60152500       0.15193400
C        1.88728900      -0.66600200       1.32791700
H       -0.99568000       1.07066000      -3.12377000
H       -0.96026200      -0.56500100      -2.48291900
H        0.51485300       0.39355200      -2.53662600
H       -1.95662000       1.10481400      -0.87221100
H       -0.46423600       2.01164600      -0.89978200
H       -1.67305200       0.92224100       1.62441900
H       -0.22724200       1.71512100       1.59431700
H       -0.72510500      -1.83472600      -0.68881900
H       -0.63372000      -1.83341000       1.13603500
H        1.43093900      -0.61357400      -0.82077600
H        1.34287800      -0.61860400       2.26723300
H        2.59514300       0.16261100       1.30496900
H        2.46355100      -1.59140300       1.31518600
