18
Properties=species:S:1:pos:R:3 pbc="F F F"
C        0.94972500       1.28885900      -1.11311500
C        0.59374200       0.92445700       0.30367400
C        1.39245200       1.27398000       1.32606900
C       -0.70753300       0.22383500       0.57640300
N       -1.62531300      -0.14778300      -0.51086300
C       -0.96551700      -1.22103400       0.23847400
C        0.05525900      -2.11114100      -0.43567300
H        1.90360700       1.80846300      -1.15230100
H        0.18840900       1.93996200      -1.54449400
H        1.01724300       0.40827200      -1.75360900
H        2.32184600       1.80286100       1.15798900
H        1.12956600       1.03636700       2.34969900
H       -1.22356400       0.59066100       1.47243800
H       -1.17393700      -0.01954800      -1.42007400
H       -1.64330500      -1.75811000       0.91447600
H        0.67949600      -1.55852600      -1.13352700
H       -0.43848300      -2.90933700      -0.99002600
H        0.70754500      -2.58032300       0.30047100
