20
Properties=species:S:1:pos:R:3 pbc="F F F"
C       -1.25960800      -1.99665200      -1.65053600
C       -0.43316400      -1.71789800      -0.40071100
C       -0.94630300      -0.52012300       0.41633800
C       -0.68244800       0.84859100      -0.23312200
C        0.66899600       1.49772700       0.07286800
C        1.19579400       1.62825600       1.46092000
N        1.83522300       0.72448200       0.50280600
H       -0.86609700      -2.85750000      -2.18685800
H       -1.24863000      -1.14706500      -2.33030600
H       -2.29664200      -2.20516700      -1.39454200
H        0.61065700      -1.55714500      -0.68670500
H       -0.44435300      -2.60806600       0.23754000
H       -0.50000200      -0.54770800       1.41659100
H       -2.02467700      -0.63681700       0.56565100
H       -1.46961600       1.54686100       0.07974800
H       -0.78843100       0.75921900      -1.32001000
H        0.91985500       2.30988200      -0.62183000
H        0.64088600       1.17216200       2.28344300
H        1.78288200       2.50472100       1.74027400
H        1.57800600      -0.24416100       0.70281500
