15
Properties=species:S:1:pos:R:3 pbc="F F F"
C       -1.83391400       1.83185400       0.41512400
C       -0.34021800       1.60318600       0.63953300
C        0.13641800       0.25765100       0.15419600
C        1.11783700       0.00778800      -0.80733500
N        1.22382400      -1.34367900      -0.91635000
N        0.38510300      -1.99232000      -0.09724200
C       -0.28929200      -1.02641100       0.56574100
H       -2.13560700       2.80977300       0.78584400
H       -2.42549400       1.07920200       0.93176400
H       -2.08277000       1.78139300      -0.64266500
H       -0.12306300       1.71057000       1.71092700
H        0.22809700       2.39104800       0.13405500
H        1.72475900       0.68002100      -1.40200400
H        1.84866700      -1.86041800      -1.52931400
H       -1.04206600      -1.28399600       1.30298900
