18
Properties=species:S:1:pos:R:3 pbc="F F F"
C       -2.74280800      -1.47695800      -1.31276200
C       -1.72723900      -1.59458500      -0.45717100
C       -1.05875300      -0.43991200       0.23653600
C        0.46640600      -0.43575400       0.03917500
C        1.14777500       0.68286600       0.81579800
C        1.39372600       2.02243200       0.21028400
N        2.49342700       1.07370600       0.38896100
H       -3.19143900      -2.34743900      -1.77544600
H       -3.15254300      -0.50829600      -1.57503000
H       -1.33759000      -2.58543800      -0.22057300
H       -1.27471900      -0.49860700       1.31280500
H       -1.48611900       0.50540600      -0.11247200
H        0.70328100      -0.33743800      -1.02361400
H        0.87302200      -1.40292900       0.35882000
H        0.97681900       0.66110400       1.90108900
H        1.38372500       2.90456800       0.85405600
H        1.10705200       2.21020700      -0.82521900
H        3.06988000       1.33438900       1.19170000
