18
Properties=species:S:1:pos:R:3 pbc="F F F"
C        1.97454800      -1.32534400      -0.00195700
C        0.67196500      -1.62366100       0.02871100
C       -0.45248800      -0.68164600       0.27971100
C       -0.25252900       0.74302700       0.70980000
C       -0.78159100       0.47027400      -0.67617700
C        0.05197200       0.73848600      -1.90866100
N       -1.11616900       1.28770300       1.74985000
H        2.71421100      -2.09086300      -0.20038200
H        2.34002400      -0.32110400       0.17806700
H        0.37164100      -2.65826600      -0.14579900
H       -1.34151900      -1.17042800       0.68379700
H        0.77992600       1.09493300       0.78654200
H       -1.85259700       0.63155200      -0.81601000
H        1.10125100       0.51581200      -1.73058700
H       -0.02281100       1.78448200      -2.20817500
H       -0.28203400       0.13144300      -2.75021800
H       -2.03305100       0.84903000       1.72866100
H       -1.23310700       2.29267300       1.63659500
