20
Properties=species:S:1:pos:R:3 pbc="F F F"
C        1.11596600       1.55706500      -0.42268900
C        0.63204900       0.10283700      -0.34204800
C       -0.89993000       0.04024500      -0.30334900
C       -1.64444500      -1.14270100      -0.81937800
N       -1.60226900       0.10237100      -1.58831100
C        1.27737800      -0.66154400       0.84048900
C        0.90255700      -0.14653500       2.22526600
H        2.20250700       1.60293900      -0.46740600
H        0.79088900       2.13330700       0.44158500
H        0.71944800       2.04007200      -1.31273700
H        0.95622100      -0.40653100      -1.26263800
H       -1.37027600       0.59346300       0.52039700
H       -2.59633600      -1.41312400      -0.35712800
H       -1.09958000      -1.97872500      -1.26054900
H       -2.48402200       0.61161200      -1.49861000
H        2.36628600      -0.62191200       0.72841300
H        1.00134400      -1.71954200       0.76764900
H        1.16759700       0.90167100       2.34474100
H        1.42560000      -0.71141300       2.99442500
H       -0.16524800      -0.24462200       2.41028800
