17
Properties=species:S:1:pos:R:3 pbc="F F F"
N        1.57737000      -0.75056900       1.90056100
C        1.73828600       0.53034000       1.21034100
C        1.11845600      -0.63201900       0.51384900
C       -0.37764800      -0.67056200       0.22134000
C       -0.71623400      -0.14606100      -1.17018100
N       -2.10577200       0.20194200      -1.47934600
C       -1.11424200       1.27432600      -1.38153500
H        0.78731200      -0.71213700       2.54874500
H        2.76802800       0.81311200       0.98730400
H        1.09768200       1.35412800       1.53183300
H        1.73893300      -1.18015300      -0.20544400
H       -0.91871600      -0.09107300       0.97762100
H       -0.73485500      -1.70553900       0.31201000
H       -0.19415700      -0.65369500      -1.99039300
H       -2.68349800       0.16887800      -0.63617600
H       -1.17889200       1.93658900      -0.51573600
H       -0.87473000       1.77412900      -2.32116000
