20
Properties=species:S:1:pos:R:3 pbc="F F F"
C        0.33982800      -0.16385200      -1.76364600
C        0.12545000      -0.16966500      -0.24087600
C       -1.37747400      -0.20273400       0.13640400
C       -2.16520700       1.01798900      -0.32398700
C        0.95384000       0.88058400       0.55050300
C        1.57098400      -0.29308300       1.31791500
N        0.89433100      -1.27010600       0.43745300
H        1.39992900      -0.21994900      -1.99907000
H       -0.05753300       0.74316200      -2.21479700
H       -0.15225300      -1.01617700      -2.22863900
H       -1.82996800      -1.10750300      -0.28450100
H       -1.46386600      -0.29410500       1.22473400
H       -2.18709600       1.09127200      -1.40896500
H       -1.72794900       1.93601500       0.06425800
H       -3.19401600       0.96450300       0.02611700
H        0.37565000       1.58706800       1.15153600
H        1.66432300       1.44602900      -0.05685100
H        1.25683800      -0.35750500       2.37228600
H        2.67025400      -0.36473300       1.29102200
H        0.30084700      -1.93276600       0.94282400
