18
Properties=species:S:1:pos:R:3 pbc="F F F"
C        0.38505100      -0.99326900      -1.44616300
C       -0.01807500      -0.75957100       0.01655800
C        0.54093300       0.56504900       0.63270000
C        2.07118700       0.53631100       0.72050600
C        0.04624700       1.80950700      -0.11190100
C       -1.48385800      -0.80564200       0.15934400
N       -2.62713800      -0.84924000       0.28402000
H        1.46756500      -0.99416600      -1.54977600
H       -0.01861100      -0.22129800      -2.09654000
H        0.01155200      -1.95370700      -1.79398400
H        0.38165200      -1.59443300       0.61803300
H        0.15072200       0.61455600       1.66140000
H        2.52762300       0.53267700      -0.26700400
H        2.41582200      -0.34728500       1.25462600
H        2.43628800       1.41354800       1.24973400
H        0.43562500       1.84560300      -1.12702700
H        0.37267500       2.71189600       0.40037700
H       -1.03985500       1.82297000      -0.16424500
