20
Properties=species:S:1:pos:R:3 pbc="F F F"
C       -3.47524300      -0.99997500      -0.95094300
C       -1.98680400      -0.86704900      -1.03206300
C       -1.21162600      -0.44876000      -0.02358400
C        0.28657000      -0.33279500      -0.09965200
C        0.79617600       1.06035400       0.30263900
C        2.32537100       1.15070700       0.31147100
N        2.91168300       0.24279500       1.30060400
H       -3.78599800      -2.02813100      -1.14521100
H       -3.96445600      -0.37590100      -1.70102500
H       -3.84925600      -0.71066600       0.02851600
H       -1.52929900      -1.13607600      -1.98450300
H       -1.67311200      -0.17696100       0.92669800
H        0.63096700      -0.57505800      -1.11070100
H        0.74446500      -1.07297400       0.56972200
H        0.41038100       1.31500700       1.29652900
H        0.39709800       1.81264800      -0.38576100
H        2.62235800       2.20586600       0.49532600
H        2.72149100       0.88947800      -0.68080100
H        2.56214700       0.45306400       2.23203800
H        3.92477000       0.32525000       1.30773700
