19
Properties=species:S:1:pos:R:3 pbc="F F F"
C        2.14527100       0.17024400       0.78290600
C        1.26624900      -0.37958800      -0.33554200
C       -0.16018100       0.18591000      -0.33041400
C       -1.00164900      -0.06384400       0.93623600
N       -1.17581600      -1.48466500       1.26866600
C       -0.88042800       0.31623700      -1.63721300
N       -0.31916600       1.49937800      -0.97819100
H        3.15577500      -0.22673300       0.70734900
H        1.75516900      -0.09759000       1.76312900
H        2.20486300       1.25483400       0.73096600
H        1.22400100      -1.47383800      -0.26033200
H        1.72905600      -0.15404700      -1.30053500
H       -0.53799100       0.43492200       1.79907800
H       -1.99447300       0.39068200       0.80522100
H       -0.27889200      -1.91332800       1.48343500
H       -1.59129600      -1.98808100       0.48858200
H       -1.96918900       0.22802400      -1.65362200
H       -0.38709500       0.02849700      -2.56717900
H       -1.06062100       2.03991200      -0.52526100
