16
Properties=species:S:1:pos:R:3 pbc="F F F"
C       -2.25252900       1.12406800       1.43085200
C       -0.80286200       0.76979600       1.17519200
N       -0.14298600       1.39887200       0.02423400
C       -0.38716700      -0.04727000      -0.00753400
C        0.80027000      -1.00432300       0.09976900
C        1.45705300      -1.24549300      -1.18651900
C        2.00212200      -1.45564500      -2.24374400
H       -2.33433200       2.06569100       1.97281300
H       -2.74361600       0.35545900       2.02764700
H       -2.79593300       1.22702700       0.49502400
H       -0.18578000       0.67018400       2.07868300
H        0.83908000       1.59723200       0.22980700
H       -1.15894000      -0.35029700      -0.72333000
H        1.53698500      -0.60602600       0.81035900
H        0.46490800      -1.96877600       0.50890300
H        2.47721000      -1.62939300      -3.17764300
