20
Properties=species:S:1:pos:R:3 pbc="F F F"
C       -2.99936800      -0.54053400      -0.22056000
C       -1.47618400      -0.57536700      -0.19054100
C       -0.87239200       0.79479100       0.14193900
C        0.66123500       0.84707000       0.21351900
C        1.42044200      -0.16076900       1.10075200
N        2.33973200      -0.46176300      -0.01671800
C        1.50135700       0.30586900      -0.96136300
H       -3.40531900      -1.51886600      -0.46936300
H       -3.36048600       0.17052000      -0.96114800
H       -3.40373600      -0.24597200       0.74604900
H       -1.10309100      -0.91910200      -1.16104000
H       -1.14649700      -1.31572500       0.54590800
H       -1.27852400       1.13881500       1.10076200
H       -1.21188500       1.52215400      -0.60523300
H        0.95269500       1.87937700       0.45829300
H        0.82319100      -1.02869100       1.42487400
H        1.92122600       0.25300200       1.99176800
H        2.41855300      -1.45648800      -0.23820100
H        0.94498900      -0.32758400      -1.67123200
H        2.06021400       1.05454100      -1.54688000
