20
Properties=species:S:1:pos:R:3 pbc="F F F"
C       -0.37340300      -2.50394200       0.86577600
C       -0.00666800      -1.06832600       1.22871700
C        0.55231000      -0.28684600       0.04354700
C        0.49017200       1.21168300      -0.01722600
N       -0.31154800       0.39241100      -0.93989500
C       -1.76089400       0.38531500      -0.74506000
C        1.61624100       2.03768100      -0.60478900
H       -0.74373700      -3.04265000       1.73585900
H        0.49162200      -3.04100600       0.48104100
H       -1.14607100      -2.52814400       0.10059300
H        0.74564800      -1.08255000       2.02775500
H       -0.87986200      -0.55734700       1.64494200
H        1.42308900      -0.76567400      -0.42568800
H       -0.07373100       1.70487500       0.78751900
H       -2.21820000       1.13986400      -1.39401100
H       -2.07369900       0.60432600       0.28866800
H       -2.17053500      -0.58918200      -1.02720500
H        2.13824200       1.48587600      -1.38310500
H        2.34208300       2.31023500       0.16143000
H        1.23943700       2.96110600      -1.04431600
