18
Properties=species:S:1:pos:R:3 pbc="F F F"
C       -0.70156000       0.43327000       3.09808100
C       -1.03231200       0.43918300       1.63956700
C       -0.12755600       0.29613400       0.65868100
C       -0.47667100       0.31292500      -0.78526700
N        0.48631700       0.88201200      -1.75294300
C        0.22870600      -0.55804200      -1.79149900
C        1.32642600      -1.52907400      -1.41329000
H       -1.00168100       1.37095600       3.56959100
H        0.36397300       0.29386500       3.26624000
H       -1.23626000      -0.36474000       3.61683000
H       -2.08358200       0.56880500       1.38115200
H        0.92493500       0.17474200       0.91552000
H       -1.52013700       0.56817500      -1.00483800
H        1.37842500       1.06900800      -1.28673600
H       -0.36599900      -0.87068200      -2.65925200
H        1.94647800      -1.14104900      -0.60826300
H        1.97496500      -1.72540600      -2.26691000
H        0.91246700      -2.48414400      -1.09037600
