19
Properties=species:S:1:pos:R:3 pbc="F F F"
N       -2.43151800      -0.10767100      -0.50249000
C       -0.96196000      -0.11922600      -0.54198700
C       -0.36130300      -1.37157100       0.12847600
N        0.88670100      -0.93708600       0.78481100
C        1.05463400       0.53202300       0.63846100
C       -0.34013000       1.04639200       0.24128300
C        2.13765400       0.88288800      -0.39661700
H       -2.81160300      -0.89433000      -1.02334900
H       -2.79334800       0.75155100      -0.90897700
H       -0.59779300      -0.07017100      -1.59694000
H       -0.16220100      -2.17596800      -0.59675000
H       -1.06834900      -1.78761400       0.86859700
H        1.69894100      -1.44202800       0.42957800
H        1.36358200       0.97084600       1.61033200
H       -0.29623800       1.97210600      -0.33983500
H       -0.93646100       1.25090600       1.13490000
H        1.87698200       0.50985500      -1.38536200
H        3.09412700       0.44471800      -0.11624000
H        2.27270300       1.96038900      -0.46989700
