19
Properties=species:S:1:pos:R:3 pbc="F F F"
N       -1.30931300       1.70100700       1.16575500
C        0.12263900       1.42065800       1.03226500
C        0.41263300       0.71999400      -0.28920400
C        1.57597600      -0.24100400      -0.40332800
C        0.14691300      -0.74404200      -0.49580200
C       -0.36871300      -1.21333900      -1.84602100
N       -0.40517400      -1.52435400       0.61391500
H       -1.51487200       2.11280000       2.07214700
H       -1.84616000       0.84303900       1.06453800
H        0.50723700       0.80918900       1.87742200
H        0.67529600       2.37274900       1.07461200
H        0.24820400       1.35092700      -1.16435900
H        2.13238000      -0.45430000       0.50419800
H        2.18015100      -0.19871900      -1.30436300
H        0.03547700      -0.60538400      -2.65179200
H       -1.45529800      -1.15543300      -1.88984600
H       -0.08905000      -2.25062000      -2.03289900
H       -0.03116100      -1.20403400       1.50309600
H       -0.17748700      -2.51038700       0.50209500
