13
Properties=species:S:1:pos:R:3 pbc="F F F"
C       -0.33056400       2.66104800       0.00430200
C       -0.93763900       1.46503400      -0.00851000
C       -0.23158300       0.18493500      -0.00273200
N        1.07512300       0.07221400       0.01547900
N        1.41553500      -1.32212700       0.01570300
C        0.32043700      -2.02074200      -0.00217600
C       -0.90585200      -1.16178500      -0.01675300
H       -0.90260800       3.58099000      -0.00074500
H        0.75040400       2.73630400       0.02004100
H       -2.02657800       1.41718000      -0.02425600
H        0.33741000      -3.11146200      -0.00552400
H       -1.55347000      -1.32516500       0.85238400
H       -1.52855400      -1.31939200      -0.90495300
