15
Properties=species:S:1:pos:R:3 pbc="F F F"
C       -0.94467100       0.01971300      -2.42562600
C       -1.02002600       0.01303500      -0.90111100
C       -0.23988200      -1.11112400      -0.18503500
C        0.71884500      -0.01334300       0.32391200
N       -0.16591800       1.03936900      -0.23371300
C        0.93568400       0.06246400       1.77924700
N        1.12628800       0.08531000       2.91397300
H       -1.50290700      -0.81565000      -2.84383800
H        0.08448200      -0.05613600      -2.77238400
H       -1.36661900       0.93946000      -2.82656000
H       -2.07720000       0.09344400      -0.58526300
H        0.22016400      -1.86276200      -0.83072700
H       -0.80037900      -1.61988000       0.60122500
H        1.71147200      -0.04669300      -0.16856900
H        0.30869100       1.67098700      -0.88403400
