17
Properties=species:S:1:pos:R:3 pbc="F F F"
C        0.28736100       2.66376800      -0.58540900
C        0.01282500       1.39783100      -1.38961900
C       -0.56406600       0.27468000      -0.53372200
C       -0.36253400      -1.16963800      -0.89632200
N        0.36844300      -0.56835500       0.20909100
C        0.15925800      -0.95250500       1.54806900
N        0.13892400      -2.16860900       1.97553200
H        0.68291800       3.44965400      -1.22514100
H        1.01266600       2.47368500       0.20251300
H       -0.62280700       3.03615100      -0.11911600
H        0.93725400       1.05422200      -1.86268900
H       -0.68751400       1.62661700      -2.20164900
H       -1.49879400       0.52358200      -0.01304200
H        0.23639200      -1.42709000      -1.77277900
H       -1.13927300      -1.89433900      -0.64049800
H        0.11331000      -0.11597500       2.26692400
H        0.21721500      -2.85257700       1.21512800
