20
Properties=species:S:1:pos:R:3 pbc="F F F"
C       -1.84151200       0.55604300       1.50124500
C       -0.53897600      -0.17729800       1.21138300
C        0.17465400       0.20141300      -0.10295900
N        1.46464100      -0.47648600      -0.29918500
C        1.38148300      -1.91245500      -0.55790900
C       -0.60525800       0.49113800      -1.35236200
C        0.10648700       1.60646100      -0.63973700
H       -2.27512400       0.19963200       2.43353700
H       -2.57398500       0.39475200       0.71321400
H       -1.68436700       1.62812100       1.59876800
H       -0.73545700      -1.25603200       1.20369900
H        0.15751700      -0.01019400       2.04304900
H        2.07970900      -0.30077600       0.49973900
H        0.75849700      -2.09904500      -1.43605300
H        0.95863500      -2.49350600       0.28194100
H        2.38207800      -2.30439000      -0.75988400
H       -1.68946400       0.47653600      -1.30953900
H       -0.18737200       0.15786800      -2.29619400
H       -0.49981700       2.34222500      -0.12203900
H        0.99539600       2.00839700      -1.11391400
