18
Properties=species:S:1:pos:R:3 pbc="F F F"
C        0.13791800       0.36630500       2.13470900
C       -0.33991900       0.36104800       0.68334000
C        0.13929600       1.58553700      -0.13848400
C        0.49310800       1.01654300      -1.48532000
C        0.48315300      -0.31934100      -1.49324700
C        0.14188100      -0.89479000      -0.13544500
N       -0.83450400      -1.99339400      -0.20725900
H       -0.22455700       1.24599500       2.66444700
H        1.22517400       0.36798100       2.19258200
H       -0.22255300      -0.51355500       2.66587100
H       -1.44121400       0.35878500       0.68736100
H        1.01538900       2.06186500       0.32245400
H       -0.62839800       2.36618300      -0.20611400
H        0.74727200       1.64484200      -2.33457300
H        0.72137900      -0.94080700      -2.35128700
H        1.06146500      -1.30874800       0.32625800
H       -1.70161700      -1.67494800      -0.63317100
H       -1.04343100      -2.34565000       0.72366400
