18
Properties=species:S:1:pos:R:3 pbc="F F F"
C        1.50800800      -2.39390400       0.55743400
C       -0.01252700      -2.41990300       0.50437600
C       -0.67713900      -1.10233900       0.20493500
C       -0.05994400       0.06712700      -0.01962100
C       -0.78613200       1.33246200      -0.30989100
C       -0.22856100       2.64394000       0.15153200
N       -0.19319200       2.29025200      -1.26110100
H        1.89637200      -3.38560900       0.77974800
H        1.86505200      -1.71517800       1.32929500
H        1.93163700      -2.07482200      -0.39254800
H       -0.40281900      -2.79878900       1.45926300
H       -0.33783000      -3.15400200      -0.24585800
H       -1.76772600      -1.13188500       0.17566000
H        1.02803200       0.12579500       0.00057900
H       -1.87595400       1.24594900      -0.38579100
H        0.72019800       2.65193300       0.69259900
H       -0.91247900       3.45247300       0.41513800
H        0.74562900       1.98807700      -1.53295700
