12
Properties=species:S:1:pos:R:3 pbc="F F F"
C       -1.80305100      -1.35858500      -0.36043700
C       -0.83129500      -0.68377800      -0.97088700
C       -0.03720900       0.45823800      -0.35016900
C       -0.34975700       0.66602700       1.07661400
N       -0.61097300       0.85042200       2.18111700
C        1.41416800       0.27284000      -0.54545500
C        2.59730500       0.12526400      -0.73354200
H       -2.33638100      -2.14845400      -0.87546000
H       -2.08765300      -1.14731400       0.66390600
H       -0.56054800      -0.92211600      -1.99850000
H       -0.32192700       1.39185600      -0.87851400
H        3.64235500      -0.00696500      -0.87599500
