18
Properties=species:S:1:pos:R:3 pbc="F F F"
N       -2.16830800       0.42993300       1.35497200
C       -1.82791800      -0.33202700       0.14349700
C       -1.04957300       0.50538000      -0.84271300
C        0.28728200       0.56091500      -0.97623600
C        1.30553700      -0.13350700      -0.16160400
C        1.16566800      -0.35970400       1.15789500
C        2.56192800      -0.53237500      -0.89326800
H       -2.78042800      -0.11513500       1.95673700
H       -2.63966800       1.29709300       1.11139600
H       -2.74293300      -0.70799000      -0.36412000
H       -1.24688100      -1.21771300       0.43824300
H       -1.65052200       1.09391400      -1.53815600
H        0.68671300       1.16134100      -1.79608200
H        0.29013800      -0.02407700       1.69854200
H        1.95002200      -0.85431400       1.71897200
H        2.33750200      -1.22139900      -1.70828900
H        3.27482600      -1.01303700      -0.22821500
H        3.04184300       0.33969400      -1.33926000
