17
Properties=species:S:1:pos:R:3 pbc="F F F"
C        1.37230900      -0.89754900       1.58671100
C        0.68324900      -1.60304800       0.42567400
C       -0.14362900      -0.67187700      -0.48737200
C       -1.34161700       0.03516200       0.17978700
N       -1.29003500       1.41225800      -0.35517300
N       -0.02737600       1.64488400      -0.92472500
C        0.61561400       0.52456500      -1.03994400
H        1.95972400      -1.60346700       2.17053700
H        0.64928700      -0.43407700       2.25517800
H        2.04051700      -0.11774100       1.22742500
H        0.03187200      -2.39493200       0.81334400
H        1.44048300      -2.10452200      -0.18724200
H       -0.50643300      -1.29038800      -1.32945800
H       -1.26552000       0.03659700       1.28199200
H       -2.30279600      -0.44492300      -0.06513300
H       -1.53680100       2.14504200       0.31801600
H        1.59598200       0.48490300      -1.51451300
