20
Properties=species:S:1:pos:R:3 pbc="F F F"
C       -2.53674600      -0.84863200       0.78912400
C       -1.63823000       0.24993000       0.23569800
C       -0.21712500       0.20197700       0.81608600
C        0.69945500      -0.93596000       0.32021300
C        1.59548300       0.15448800      -0.30380200
N        0.71363900       1.22518500       0.25222500
C        1.71486700       0.15242800      -1.82543100
H       -3.53391900      -0.79008300       0.35809800
H       -2.63304800      -0.76732300       1.87018300
H       -2.13289100      -1.83414100       0.56501400
H       -2.07915500       1.22839100       0.45705500
H       -1.59367200       0.17196600      -0.85626300
H       -0.27367100       0.27130700       1.92051800
H        0.23964500      -1.62160100      -0.39594800
H        1.17253400      -1.52780400       1.10816800
H        2.61012500       0.19728400       0.13940800
H        0.27793200       1.79272900      -0.47970800
H        0.73658400       0.10191900      -2.30063000
H        2.29749700      -0.70103400      -2.16783400
H        2.21034100       1.05671100      -2.17496800
