20
Properties=species:S:1:pos:R:3 pbc="F F F"
C        0.55947300       2.36701400      -1.25861400
C       -0.27273800       2.24398200       0.01137900
C        0.02539900       0.97569200       0.82663500
C       -0.37315000      -0.31533200       0.11964900
C        0.63348100      -1.08218000      -0.70595500
C        0.16059000      -1.64791100       0.59260500
N       -0.67622600      -2.84134000       0.58441500
H        0.31906800       3.28664500      -1.78870700
H        0.37483000       1.53321900      -1.93172800
H        1.62307000       2.38001800      -1.02857100
H       -1.33683300       2.26580400      -0.24789100
H       -0.09424200       3.11994600       0.64489300
H       -0.51212400       1.04617800       1.78191600
H        1.09100700       0.94092000       1.07715800
H       -1.39196000      -0.32082300      -0.27169600
H        1.64667700      -0.69585700      -0.75803600
H        0.28161200      -1.54520500      -1.62266900
H        0.87056500      -1.63237000       1.42518000
H       -1.22844900      -2.88871300      -0.26750800
H       -1.30796500      -2.84796500       1.38255900
