18
Properties=species:S:1:pos:R:3 pbc="F F F"
C       -1.86790900       0.62338900       1.26670700
C       -0.37575500       0.43542300       1.25673300
C        0.43891600       1.23499800       1.95929000
C        0.16277400      -0.71166700       0.42451800
C       -0.04448100      -0.51271800      -1.07710100
C        0.99441700       0.15630900      -1.90853500
N        0.77636400      -1.28836100      -2.00989100
H       -2.15935300       1.44729100       1.91295700
H       -2.36914100      -0.28089400       1.61413000
H       -2.24349100       0.82758700       0.26309800
H        0.04769300       2.04948400       2.55618400
H        1.51219300       1.09053800       1.95130100
H       -0.33777700      -1.64091400       0.73030400
H        1.22978000      -0.84593000       0.62766100
H       -1.09050700      -0.40848700      -1.38892600
H        1.91671500       0.48882100      -1.42885200
H        0.70120900       0.73464400      -2.78592500
H        1.51036500      -1.79801500      -1.51236500
