14
Properties=species:S:1:pos:R:3 pbc="F F F"
N       -1.13227500       2.03822200       1.63529800
C       -1.36593500       1.00307800       1.19107100
C       -1.68861100      -0.31139200       0.63745800
C       -1.10561400      -0.52919100      -0.77216300
C        0.35949200      -0.56101700      -0.78770500
C        1.56813400      -0.59365200      -0.81023300
C        3.02426700      -0.62048400      -0.83247500
H       -2.78030700      -0.41360000       0.60244900
H       -1.31838500      -1.08204600       1.32286900
H       -1.46373700       0.26151900      -1.44377700
H       -1.49531400      -1.47631000      -1.16932800
H        3.40509600      -0.18022600      -1.75550300
H        3.39507300      -1.64486000      -0.76654700
H        3.43309700      -0.05608300       0.00703900
