20
Properties=species:S:1:pos:R:3 pbc="F F F"
N       -0.46307200      -1.59978000       1.22498800
C       -1.18890000      -0.99966900       0.10013000
C       -0.72260400       0.40932900      -0.21862100
C       -1.60961200       1.41032900      -0.30561900
C        0.76258500       0.66967500      -0.48270200
C        1.54441000       0.84987100       0.83090600
C        1.40574100      -0.41898100      -1.35247300
H       -0.79107300      -2.54841000       1.38861400
H       -0.61255800      -1.05850200       2.07291900
H       -2.28455300      -0.98600100       0.27751300
H       -1.03284200      -1.63739700      -0.78515100
H       -2.66400200       1.24811100      -0.11306700
H       -1.30255000       2.41608700      -0.56744900
H        0.82909800       1.62312500      -1.03198800
H        1.56132700      -0.07188400       1.40662300
H        1.09646400       1.62866800       1.44454400
H        2.57405400       1.13448800       0.62091100
H        1.41835400      -1.37695500      -0.83817800
H        2.43408700      -0.15341500      -1.59047000
H        0.86597600      -0.54278500      -2.28946500
