19
Properties=species:S:1:pos:R:3 pbc="F F F"
C       -0.43207500      -0.53432700      -2.36992000
C       -0.53724100      -0.69351400      -0.85548900
N        0.37025100      -1.72467100      -0.27198700
C        1.11745200      -0.69398300       0.48300000
C        0.14446900       0.40303500       0.00477400
C       -0.73006300       1.06168900       1.07730300
N        0.05979400       1.98011700       1.90242400
H       -0.77110600      -1.43565600      -2.87823000
H        0.59462900      -0.34385300      -2.67793200
H       -1.04511200       0.29574400      -2.71678300
H       -1.59510000      -0.88179400      -0.58148000
H        0.93916100      -2.20451300      -0.97319200
H        2.15807600      -0.56345500       0.14543500
H        1.13819800      -0.88065400       1.56971100
H        0.63767800       1.18201300      -0.59303600
H       -1.22407000       0.27667600       1.68761500
H       -1.53988200       1.63039700       0.59423600
H        0.83645000       1.48917200       2.33849400
H       -0.51449100       2.39040300       2.63409300
