16
Properties=species:S:1:pos:R:3 pbc="F F F"
C        0.51369100       1.70114000      -2.32368300
C        0.99503200       1.06819400      -1.02246400
C       -0.11394200       0.32288100      -0.29115000
C       -0.40731500      -1.10800000      -0.60966800
C        0.24442400      -0.75654900       0.70357800
C       -0.51651500      -0.87753700       1.93071900
N       -1.11228600      -0.97139800       2.91307600
H        1.32468600       2.23315200      -2.81602400
H       -0.29089800       2.40971400      -2.13843500
H        0.14065400       0.94448200      -3.01047000
H        1.40133400       1.84881200      -0.36878600
H        1.81980600       0.37907700      -1.23199500
H       -0.97691000       0.93593300      -0.02876400
H        0.21353100      -1.60706700      -1.34744800
H       -1.43997000      -1.43975300      -0.58574800
H        1.30152800      -1.00533900       0.81214900
