15
Properties=species:S:1:pos:R:3 pbc="F F F"
N       -2.39141500      -0.02851900       0.73149200
C       -1.15656400      -0.20207800       0.36429200
C       -0.35459600      -1.48570300       0.19680100
C        0.99296500      -0.97329400      -0.24271700
C        0.95258100       0.38144400      -0.31251900
N       -0.31681700       0.84868400       0.04530700
C        2.02879300       1.34043100      -0.70008500
H       -2.86840600      -0.91021100       0.93075200
H       -0.81815000      -2.15435000      -0.54039200
H       -0.31163700      -2.05614800       1.13391700
H        1.84955400      -1.59297400      -0.46710300
H       -0.59472400       1.82218800       0.07337400
H        2.94454500       0.81198000      -0.94801100
H        2.24532600       2.03805000       0.11032400
H        1.73204100       1.93550500      -1.56509900
