20
Properties=species:S:1:pos:R:3 pbc="F F F"
C       -1.89931400      -0.14630900      -0.12470300
C       -0.39234100      -0.19344000       0.10737600
C       -0.05462300      -0.28666700       1.60667300
C        1.42260700      -0.30666000       1.97582900
C        0.43955600      -0.96775700      -0.90003400
C        0.52107800       0.54292100      -0.82972700
N       -0.00586600       1.38442200      -1.89566800
H       -2.39339200      -0.96318700       0.40116500
H       -2.15082000      -0.23625900      -1.17902400
H       -2.32570600       0.78597900       0.24555400
H       -0.53107800      -1.18875800       2.01079400
H       -0.53561600       0.55460200       2.12081300
H        1.94307000      -1.13965800       1.50784600
H        1.53544100      -0.41113200       3.05309400
H        1.92495900       0.61239100       1.68082500
H       -0.08783800      -1.40876600      -1.73974600
H        1.28144900      -1.55074100      -0.54010600
H        1.44026300       0.95250200      -0.40071500
H       -0.91205800       1.05302300      -2.21326500
H        0.63060100       1.39651700      -2.69004300
