20
Properties=species:S:1:pos:R:3 pbc="F F F"
C        0.94731500      -2.60241100      -0.40380900
C        0.05906300      -1.37312700      -0.24170800
N        0.76819900      -0.31635300       0.49993000
C        1.52547000       0.66337600      -0.28297500
C        0.27995400       1.06892100       0.43916300
C       -0.98180200       1.47872700      -0.31509200
C       -2.24805200       1.31071600       0.51868700
H        0.42090300      -3.39371200      -0.93399600
H        1.25679700      -2.99172400       0.56358300
H        1.84674000      -2.36038400      -0.96676600
H       -0.84792000      -1.64412000       0.32045000
H       -0.27604600      -1.03289200      -1.24131600
H        1.48418500       0.57217400      -1.37192800
H        2.50648300       0.93395500       0.11488100
H        0.41152800       1.60554900       1.38958100
H       -0.88607900       2.53118300      -0.61092000
H       -1.07263600       0.91124200      -1.24581500
H       -2.19212400       1.89813400       1.43331000
H       -2.39593600       0.27056500       0.80088000
H       -3.12497900       1.63728200      -0.03705200
