20
Properties=species:S:1:pos:R:3 pbc="F F F"
C       -3.15432000      -0.06544400       0.21976200
C       -1.79326100      -0.72882100       0.38860300
C       -0.67729100       0.01031100      -0.36347500
C        0.67880000      -0.66646400      -0.21137200
C        1.55119300      -0.36918000       0.98499900
C        1.97633600       0.09727200      -0.36901500
N        2.00855700       1.52435400      -0.65362300
H       -3.92418500      -0.61648900       0.75594500
H       -3.44186900      -0.02247800      -0.82906400
H       -3.14407800       0.95340400       0.60239200
H       -1.84556400      -1.76406600       0.03485200
H       -1.54114500      -0.78078100       1.45269100
H       -0.61834000       1.04283900      -0.00331000
H       -0.94015300       0.07137900      -1.42740100
H        0.69754700      -1.70466300      -0.54950700
H        2.08815300      -1.19365700       1.44486900
H        1.19573600       0.38011600       1.68508300
H        2.80310500      -0.44749200      -0.83821200
H        1.38527500       2.03363200      -0.03339200
H        1.73688100       1.71173100      -1.61660100
