19
Properties=species:S:1:pos:R:3 pbc="F F F"
N       -1.55740700      -1.11877000       0.95498100
C       -0.09670000      -1.10565200       0.79917400
C        0.33045600      -0.26242800      -0.40666300
C        0.08095900      -0.91345400      -1.76110600
C        1.57633800       0.59060300      -0.26508300
C        0.23467300       1.25074500      -0.31517700
N       -0.28281800       1.91331200       0.87231300
H       -1.83032000      -1.74263400       1.71012300
H       -2.00361000      -1.43606700       0.09802000
H        0.30950900      -2.13438700       0.68915600
H        0.34812700      -0.69801200       1.71882200
H        0.38573700      -0.25642700      -2.57317000
H       -0.97543800      -1.14608700      -1.90013200
H        0.63590800      -1.84740400      -1.85996900
H        2.23149300       0.68681800      -1.12603400
H        2.09430200       0.56996200       0.68955100
H       -0.01168200       1.77572100      -1.24569800
H        0.21437300       1.60704200       1.70396900
H       -1.27119000       1.70079400       0.99743300
