14
Properties=species:S:1:pos:R:3 pbc="F F F"
C       -2.29238400       0.44068800       0.05909700
C       -0.81594700       0.15367300      -0.01126000
C       -0.14664300       0.16053400      -1.19482900
C        1.26674200      -0.08997500      -1.45793300
C        2.24734800      -0.30929700      -0.56752400
C       -0.19737200      -0.12664200       1.26062500
N        0.21894200      -0.34407200       2.31684800
H       -2.70192800       0.62763800      -0.93077900
H       -2.49081900       1.31287300       0.68392900
H       -2.83238700      -0.39620400       0.50417900
H       -0.74243100       0.37721700      -2.08141800
H        1.52897800      -0.08501700      -2.51592600
H        2.07370900      -0.32188500       0.50036100
H        3.26182200      -0.48000700      -0.90733700
