20
Properties=species:S:1:pos:R:3 pbc="F F F"
C       -1.69102700       1.02843600       0.36631500
N       -0.31556200       1.22072600      -0.09327700
C        0.53161000       0.02202300      -0.14515300
C        0.08255400      -1.27810900      -0.77420200
C        0.30651600      -1.17774100       0.71813900
C        1.48312400      -1.89030100       1.35361700
C       -0.23957300       1.99451900      -1.33792100
H       -1.70362800       0.63221000       1.38533400
H       -2.28084800       0.34520400      -0.27230000
H       -2.20406400       1.99382300       0.37518500
H        1.58017000       0.28712800      -0.32644100
H        0.80246700      -1.84142500      -1.35969400
H       -0.94290500      -1.35777300      -1.11871500
H       -0.59860700      -1.19462600       1.32543200
H        2.36193000      -1.84396400       0.71381900
H        1.25667400      -2.94117500       1.53324900
H        1.74315000      -1.44154300       2.31227500
H       -0.75681400       2.95028100      -1.21379900
H       -0.69442600       1.47676000      -2.20203200
H        0.80661500       2.19705400      -1.58414100
