18
Properties=species:S:1:pos:R:3 pbc="F F F"
C       -2.13465800       0.00276200      -0.34293100
C       -0.71644500       0.00445400      -0.92384700
C        0.10702800      -1.25023100      -0.50192400
C        1.21586100      -0.74745500       0.40998600
C        1.21601300       0.74274300       0.41721700
C        0.10762800       1.25471800      -0.49020600
N        0.78434900      -0.00810000       1.60143200
H       -2.68221300      -0.88231100      -0.66203000
H       -2.68980600       0.87761400      -0.67681100
H       -2.12368000       0.01211100       0.74552100
H       -0.81681100       0.00930400      -2.01974100
H        0.53761800      -1.74020200      -1.38232800
H       -0.52426300      -1.99785200      -0.00984700
H        2.12781300      -1.34183400       0.52438700
H        2.12815500       1.33563900       0.53756600
H        0.53870100       1.75292800      -1.36571500
H       -0.52338900       1.99786200       0.00892900
H       -0.23512800      -0.00851500       1.68027400
