11
Properties=species:S:1:pos:R:3 pbc="F F F"
C        0.17108800       0.46247400       3.00640600
C       -0.08390900       0.46756600       1.82437700
C       -0.41312000       0.48021400       0.40969300
N        0.50220400       1.13925600      -0.52549900
C        0.43260200      -0.32294400      -0.55047800
C       -0.17841200      -0.95004600      -1.71171100
N       -0.66399900      -1.49294500      -2.60369400
H        0.39905100       0.46390500       4.04466000
H       -1.47584900       0.60803200       0.17802700
H        1.35147300       1.45131900      -0.04684500
H        1.28839300      -0.87101700      -0.14121600
