20
Properties=species:S:1:pos:R:3 pbc="F F F"
C       -1.84470200       2.08466800      -0.04239300
C       -0.45736900       1.65114500       0.41260400
C        0.03965000       0.37539100      -0.29543500
C       -0.77271700      -0.89561800       0.02701700
C        0.24670800      -2.04696000       0.03211400
C        1.62194300      -1.39121400      -0.16127800
N        1.41515700       0.03316100       0.11875600
H       -2.15528100       2.99351700       0.46924500
H       -2.58616400       1.31555800       0.16601300
H       -1.86301400       2.28059300      -1.11321200
H       -0.46025400       1.48954000       1.49522900
H        0.25483800       2.46239100       0.22448700
H       -0.00078600       0.55405900      -1.39749400
H       -1.57185800      -1.05823900      -0.70136100
H       -1.25527000      -0.80626900       1.00521000
H        0.04080400      -2.77389400      -0.75895100
H        0.20345500      -2.59986700       0.97508300
H        1.98692900      -1.55904600      -1.19594800
H        2.38798000      -1.81641300       0.50759900
H        2.11143300       0.62147400      -0.34295900
