18
Properties=species:S:1:pos:R:3 pbc="F F F"
C       -2.51380000       0.01645100      -0.85394400
C       -1.02102900      -0.04320200      -1.17165700
C       -0.17024000      -1.10674400      -0.44878200
C        0.78840900       0.04599900      -0.05405600
N       -0.20501100       1.03763800      -0.55438100
C        1.13802400       0.17747700       1.40765700
C        2.35386700      -0.04409300       1.90840800
H       -3.02857800      -0.85385500      -1.25711900
H       -2.96459300       0.90678800      -1.28828800
H       -2.68561500       0.04476700       0.21973600
H       -0.88216700      -0.08595600      -2.27162200
H        0.26249100      -1.89153800      -1.07428100
H       -0.67279000      -1.57403600       0.40078700
H        1.71336100       0.03240800      -0.66457900
H        0.17990300       1.70706400      -1.22534600
H        0.32144800       0.45021300       2.07580800
H        3.18750700      -0.31587000       1.26978300
H        2.55272300       0.04121600       2.97003000
