17
Properties=species:S:1:pos:R:3 pbc="F F F"
C       -0.33867700      -0.14466300       2.15612400
C       -0.56504500      -0.32752500       0.65131600
N        0.14003100      -1.53285900       0.14784100
C        1.00779500      -1.13730100      -0.73320400
N        1.10586000       0.23873000      -0.93224500
C       -0.01017800       0.86923000      -0.20359300
C       -1.04462700       1.48047700      -1.15909300
H       -0.70108400      -1.01128300       2.70460300
H       -0.86476200       0.73536300       2.52509400
H        0.71907500      -0.02384900       2.38182600
H       -1.65293100      -0.45516000       0.48070300
H        1.67614300      -1.81467400      -1.27202200
H        1.35410100       0.59882100      -1.85044700
H        0.37550400       1.67767500       0.45115100
H       -1.45560300       0.72617500      -1.82711300
H       -0.59815000       2.26407100      -1.77012400
H       -1.86913400       1.92045500      -0.60214900
