18
Properties=species:S:1:pos:R:3 pbc="F F F"
C       -1.13453600       0.60167600       2.30412700
C       -1.16621800       1.12364100       1.07468800
C       -0.49627300       0.53288700      -0.11675400
C        0.97229400       0.16754100      -0.10117600
N       -0.05567000      -0.87480500      -0.05616100
C       -0.28245300      -1.69625500      -1.24459600
C        1.85647100       0.37634500      -1.31378800
H       -1.62936000       1.08972000       3.13447300
H       -0.62444000      -0.33427700       2.49839200
H       -1.69459900       2.06233600       0.90350300
H       -0.88545000       0.87002000      -1.08729600
H        1.49288000       0.29177600       0.85798300
H        0.50471200      -2.45132800      -1.32700900
H       -0.30770300      -1.12195200      -2.18420500
H       -1.23908600      -2.21943500      -1.14888200
H        1.28183400       0.41339700      -2.23648600
H        2.58996200      -0.42505600      -1.40613200
H        2.40523900       1.31343000      -1.22621800
