13
Properties=species:S:1:pos:R:3 pbc="F F F"
N       -1.98084300      -0.35437500       0.50292600
C       -0.72703200      -0.33090500       0.15680900
N        0.04581400      -1.43394700      -0.21388600
C        1.33784700      -1.01867100      -0.52002500
C        1.46272400       0.32888000      -0.36640800
C        0.17056100       0.85178700       0.07239400
C       -0.17577300       2.12673500       0.35407300
H       -2.38014400      -1.29788300       0.48148400
H       -0.28235500      -2.39076300      -0.25911500
H        2.08304500      -1.74373800      -0.83060000
H        2.35952300       0.90639600      -0.53859500
H        0.53892700       2.93669000       0.26839300
H       -1.18375100       2.36059000       0.67409400
