18
Properties=species:S:1:pos:R:3 pbc="F F F"
C       -2.23158200      -0.16646300      -0.01245300
C       -0.81678000      -0.41542500      -0.54577000
C        0.02548400      -1.31850800       0.38689900
C        0.90894100      -0.35575300       1.20563400
N        0.99183700       0.92380800       0.46368000
C       -0.00356700       0.88102900      -0.61945900
C        1.45121500       0.76497400      -0.92716800
H       -2.79154000      -1.09755900       0.05422000
H       -2.77955800       0.50897300      -0.66777200
H       -2.20263100       0.27978100       0.97920400
H       -0.90469100      -0.87715600      -1.54328800
H        0.64415300      -1.99997200      -0.20598300
H       -0.60001000      -1.94430900       1.02867100
H        1.91400400      -0.76024900       1.38674200
H        0.46078500      -0.15848800       2.19154700
H       -0.52582700       1.81839400      -0.83845200
H        1.98434000       1.62791400      -1.33023300
H        1.85584000      -0.20311200      -1.22651100
