14
Properties=species:S:1:pos:R:3 pbc="F F F"
C       -2.01996700      -1.27298200       0.80077500
C       -0.53406200      -1.19858400       0.72788900
C        0.17223500      -0.20953900       0.12242500
C       -0.50667400       0.89390300      -0.52247000
N       -1.03682000       1.77939100      -1.03903400
C        1.64135000      -0.21847400       0.09592100
C        2.39952700       0.72293400      -0.48290000
H       -2.35536500      -1.29246200       1.83989000
H       -2.38280700      -2.19367600       0.33885500
H       -2.49104500      -0.42962500       0.30271300
H        0.02175700      -2.00862500       1.20072600
H        2.11496900      -1.06651200       0.59051000
H        1.95562300       1.57676200      -0.98136500
H        3.48015100       0.65485100      -0.46792700
