20
Properties=species:S:1:pos:R:3 pbc="F F F"
C       -2.39769500       1.38010000       0.48236700
C       -0.88858000       1.28878200       0.40384700
C       -0.15244700       1.93625700      -0.73434800
C       -0.22574700       0.43857400      -0.64467900
C        1.02429800      -0.36695200      -0.31872800
C        0.70364000      -1.76074100       0.23296100
N        1.93371900      -2.50636800       0.51159800
H       -2.71189000       2.31923700       0.93802100
H       -2.81004300       0.56990500       1.08361100
H       -2.84564900       1.32353900      -0.50748600
H       -0.38584000       1.32989100       1.37160500
H        0.79844300       2.41314000      -0.51755800
H       -0.73773000       2.42896300      -1.50430800
H       -0.89736100      -0.04233200      -1.35907300
H        1.63912300      -0.47422500      -1.22221300
H        1.63791200       0.17907000       0.40446700
H        0.04804200      -2.29909400      -0.48484600
H        0.12777100      -1.67047400       1.16519900
H        2.50088000      -2.58895500      -0.32831600
H        1.71949300      -3.44020800       0.85118800
