20
Properties=species:S:1:pos:R:3 pbc="F F F"
C       -0.98496400       3.01370000      -0.09587500
C       -0.44293200       1.83782200       0.70985100
C        0.05527500       0.69786000      -0.17143000
C       -0.91330700      -0.34337400      -0.68400200
C        0.12643300      -0.69902100       0.35371700
N        1.27707600      -1.53016200       0.00813800
C        0.98904300      -2.96348200      -0.01079400
H       -1.32299800       3.81167200       0.56216300
H       -1.82564300       2.70843700      -0.71519700
H       -0.21950700       3.42190700      -0.75284900
H       -1.22256800       1.46420000       1.38197600
H        0.37507700       2.18777500       1.35163200
H        0.83874600       0.98577300      -0.87546600
H       -0.77051900      -0.70405600      -1.69759600
H       -1.95030400      -0.26437200      -0.37255700
H       -0.23776900      -0.87450000       1.37112000
H        1.66056200      -1.23713800      -0.89294700
H        0.65396700      -3.29165900       0.97677100
H        1.89744000      -3.51522800      -0.26432400
H        0.20669900      -3.24271400      -0.73849900
