16
Properties=species:S:1:pos:R:3 pbc="F F F"
C       -2.64332700      -1.04279300      -0.80430600
C       -1.12658700      -1.09271700      -0.95408900
C       -0.41175100      -0.20760700       0.05968000
N       -0.23084100       1.20367400      -0.28032700
C        0.96013800       0.33656800      -0.22475800
C        1.90939300       0.52900700       0.85738500
C        2.71718100       0.68523600       1.74459400
H       -3.12573100      -1.68386500      -1.53930800
H       -3.01261200      -0.02972900      -0.94514300
H       -2.95037700      -1.37640100       0.18536500
H       -0.84623000      -0.78216500      -1.96494900
H       -0.78308400      -2.12795000      -0.83813300
H       -0.64793400      -0.41796100       1.11024200
H       -0.28310400       1.78858900       0.55737700
H        1.41349100       0.12707200      -1.20100900
H        3.42117100       0.83052300       2.52681100
