20
Properties=species:S:1:pos:R:3 pbc="F F F"
C       -1.27186400       0.42214700      -2.10100800
C       -0.07593200      -0.35534100      -1.55903100
C        0.23449100      -0.06256600      -0.08370300
C       -0.83474900      -0.55543900       0.90172600
C       -0.46331200      -0.41269500       2.37075700
N        1.63704800      -0.22031000       0.33348600
C        1.08016000       1.13266900       0.22366700
H       -1.43511700       0.19279300      -3.15203200
H       -1.11413000       1.49534600      -2.01315700
H       -2.18325200       0.17417300      -1.56096100
H        0.80675500      -0.12144200      -2.16417000
H       -0.25909600      -1.42912200      -1.68476300
H       -1.04125500      -1.61107600       0.68601600
H       -1.77439100      -0.02362400       0.70817500
H        0.49132700      -0.89069600       2.57517400
H       -1.21978700      -0.87633300       3.00106600
H       -0.38420900       0.63273900       2.66201000
H        2.23570500      -0.42691900      -0.46973700
H        1.43843400       1.74800600      -0.60469700
H        0.96691400       1.66567000       1.16823000
