18
Properties=species:S:1:pos:R:3 pbc="F F F"
C        1.48018300       0.17314000      -2.11636000
C        1.40639100      -0.41338800      -0.91991000
C        1.29035000       0.32692400       0.38541700
C        0.34649600      -0.32985900       1.40507900
C       -1.15049800      -0.26231400       1.10914600
C       -1.79258000       0.84755800       0.35064000
N       -1.68149900      -0.48973200      -0.23568600
H        1.59985300      -0.41011200      -3.02095700
H        1.41931900       1.24988900      -2.22391400
H        1.47684300      -1.49955000      -0.85143400
H        1.00389900       1.36775100       0.20563300
H        2.28966000       0.36386400       0.84218700
H        0.51986200       0.13575100       2.38386300
H        0.63262400      -1.38257600       1.52429500
H       -1.75397500      -0.73155600       1.89785800
H       -1.17003900       1.63502900      -0.07745600
H       -2.80573800       1.16105000       0.60888300
H       -0.92386600      -0.51379000      -0.92322400
