20
Properties=species:S:1:pos:R:3 pbc="F F F"
C       -1.48470500       1.86004400       0.65603800
C       -1.81278400       1.07815900      -0.61031600
C       -1.28316900      -0.36264600      -0.60009000
C        0.23847900      -0.44526500      -0.61814100
N        0.83560400      -1.76686000      -0.37798000
C        1.04023300      -0.70422600       0.61764100
C        2.42759200      -0.12219500       0.79042800
H       -1.87769200       2.87303500       0.59691400
H       -0.40982200       1.92658300       0.81043500
H       -1.91814800       1.38326000       1.53290600
H       -1.40581800       1.60745500      -1.47917500
H       -2.89914700       1.05638100      -0.74695500
H       -1.68077400      -0.88704800      -1.47779800
H       -1.66680600      -0.89418800       0.27617700
H        0.72276100       0.15503700      -1.40037100
H        1.67656700      -1.88882700      -0.94708000
H        0.49311900      -0.87185000       1.55283100
H        2.90919300       0.04135000      -0.17193500
H        3.06311300      -0.78940800       1.37272900
H        2.39034600       0.83301400       1.31382700
