16
Properties=species:S:1:pos:R:3 pbc="F F F"
C        0.83563800      -1.68126100       0.90621200
C        0.40097500      -0.20889400       0.80942600
C       -1.06076600      -0.08203700       0.93117400
C       -2.25557500       0.01839000       1.07889000
C        0.94913800       0.43912200      -0.47611800
C        0.23127700       1.51438400      -1.21646700
N        0.27841500       0.15064900      -1.74238500
H        1.92063700      -1.76039900       0.86016000
H        0.41861100      -2.26011200       0.08613200
H        0.50120400      -2.12568600       1.84096400
H        0.84562900       0.33381500       1.66591100
H       -3.31026500       0.09954700       1.17387400
H        2.04740000       0.46244200      -0.51178700
H        0.81910700       2.27395100      -1.73736300
H       -0.74841200       1.84646500      -0.87318100
H        0.95307000       0.07721900      -2.50672400
