18
Properties=species:S:1:pos:R:3 pbc="F F F"
C       -1.62814800       0.88793300       1.36998900
C       -0.11526300       0.87164200       1.36120600
C        0.64266700       1.66401300       0.32859500
C        0.64991000       0.16369100       0.27786500
N       -0.08895300      -0.49003000      -0.79806300
C        0.71644400      -1.14435500      -1.83145400
C       -0.03058400      -1.95283800      -0.82851300
H       -2.00909600       1.77785200       1.87177300
H       -2.02580500       0.01881000       1.89406100
H       -2.01902900       0.87697500       0.35581800
H        0.33939500       0.84465800       2.35384500
H        1.54980200       2.17413700       0.63950500
H        0.06337900       2.18769900      -0.42395800
H        1.58797300      -0.33368900       0.58151800
H        1.80394100      -1.08599400      -1.74009900
H        0.33660300      -1.05862000      -2.85116900
H        0.54006200      -2.45546200      -0.04333700
H       -0.95471800      -2.45667900      -1.11764200
