18
Properties=species:S:1:pos:R:3 pbc="F F F"
C       -2.78301900      -0.22919000      -2.15119000
C       -1.30223700      -0.11817400      -1.99553200
C       -0.66758700      -0.03165000      -0.80922400
C        0.78090400       0.07551900      -0.68748600
C        1.46917400       0.19369800       0.46682700
C        0.87165900       0.25707500       1.84799800
N        1.87977600      -0.02684300       2.87235300
H       -3.17729200       0.60133800      -2.74062000
H       -3.28860500      -0.23266700      -1.18809000
H       -3.05294300      -1.14484000      -2.68176200
H       -0.71654800      -0.10380800      -2.91520000
H       -1.25515600      -0.04025800       0.10833500
H        1.34085400       0.05686700      -1.62296600
H        2.55424300       0.26999000       0.41609000
H       -0.00001700      -0.42834500       1.92376800
H        0.46793900       1.26792800       2.03375400
H        2.28785500      -0.94723800       2.73073900
H        1.46788100       0.00527200       3.80112600
