18
Properties=species:S:1:pos:R:3 pbc="F F F"
C       -3.24391500       0.01168200       0.00203600
C       -1.78669300       0.00093500       0.00007200
C       -0.57673400      -0.03399600      -0.00624700
C        0.92589000       0.00311500       0.00060700
N        1.39506000       1.38826300       0.25599900
C        1.46207600      -0.91639600       1.11959300
C        1.46204700      -0.45685400      -1.37273400
H       -3.62590500       0.79171300       0.66321200
H       -3.63758400      -0.94651100       0.34591100
H       -3.63232500       0.19760400      -1.00097900
H        1.04525900       1.71558500       1.15396100
H        1.04525400       2.01428600      -0.46620500
H        1.10405500      -0.59032600       2.09337600
H        2.54931200      -0.89848500       1.13546600
H        1.13860900      -1.94271500       0.96579900
H        1.10406200       0.19510500      -2.16618100
H        1.13851900      -1.47050400      -1.59512800
H        2.54928300      -0.43450800      -1.38118500
