18
Properties=species:S:1:pos:R:3 pbc="F F F"
C       -1.30229200      -0.39569400       1.52722200
N       -0.06557900      -0.41984900       0.76266300
C        0.07579500      -1.51213400      -0.21047800
C        1.00491000      -0.94674500      -1.24276700
C        1.20429600       0.35824200      -1.03938900
C        0.42165000       0.84809800       0.15802400
C       -0.68493800       1.84964200      -0.24452500
H       -1.42426400      -1.34399700       2.06182300
H       -2.20910600      -0.25101400       0.90751600
H       -1.27133000       0.40710600       2.26896800
H       -0.89581500      -1.81317700      -0.66491900
H        0.47360700      -2.43148400       0.26544200
H        1.43511000      -1.53557400      -2.04749100
H        1.81694600       1.00813900      -1.65715000
H        1.09181500       1.37500000       0.87818200
H       -1.39976900       1.39583300      -0.92716900
H       -0.24626200       2.71328200      -0.74058000
H       -1.22841100       2.20637700       0.62821300
