20
Properties=species:S:1:pos:R:3 pbc="F F F"
C       -1.67785100       1.89007300      -0.39516300
C       -0.20986900       1.59792800      -0.45988200
C        0.40073700       0.41848300      -0.23690300
C       -0.34582700      -0.87428200       0.14296400
N        0.20785100      -2.07168300      -0.52292400
C       -0.33333400      -1.08620500       1.66499700
C        1.90345800       0.32376700      -0.33015300
H       -1.99099900       2.46555700      -1.26712300
H       -1.91325300       2.49699100       0.48233600
H       -2.28632000       0.99035500      -0.34675900
H        0.41588000       2.45768800      -0.70356500
H       -1.39824100      -0.78234300      -0.17964800
H        1.14906700      -2.26362000      -0.18891700
H        0.24601100      -1.93147300      -1.52952400
H        0.68524400      -1.18314000       2.03726500
H       -0.87317200      -1.99332400       1.92784000
H       -0.80056600      -0.24817800       2.17694000
H        2.35337600       1.30190700      -0.48359200
H        2.20889800      -0.31871800      -1.15853900
H        2.32523100      -0.10850500       0.57859700
