18
Properties=species:S:1:pos:R:3 pbc="F F F"
C        2.66375500      -1.03242200      -0.49884100
C        1.54789000      -1.28687600       0.46561100
C        0.41011900      -0.58414300       0.59378500
C        0.02196700       0.61094100      -0.19964200
C       -0.80190400       1.70434900       0.42255800
N       -1.38500500       0.84776700      -0.60117700
C       -2.41721400      -0.10118800      -0.18202400
H        2.86673400      -1.92486600      -1.09298700
H        3.58645500      -0.79364100       0.03396800
H        2.44819500      -0.21449900      -1.18096600
H        1.69734600      -2.13952900       1.12818600
H       -0.29845800      -0.90363300       1.35723500
H        0.73632600       0.91860000      -0.97245600
H       -0.62576300       2.74296300       0.13173800
H       -1.15021400       1.56861100       1.45035100
H       -3.40469800       0.33366100      -0.37036300
H       -2.37035800      -0.36693400       0.88525500
H       -2.33820300      -1.01906800      -0.77041000
