16
Properties=species:S:1:pos:R:3 pbc="F F F"
C       -1.73603900       0.07448700       0.98313100
C       -0.20030100      -0.00620700       1.07414200
C        0.28938800      -1.29402700       0.55080000
N        0.67248700      -2.31636700       0.18557300
C        0.47403300       1.19427300       0.41498900
C        0.67801000       1.38817600      -0.89435100
C        0.31555700       0.46444400      -2.01134600
H       -2.19732700      -0.76266300       1.50280400
H       -2.06810900       0.05868700      -0.05201000
H       -2.08962700       0.99709000       1.43760400
H        0.07228200       0.00981500       2.14315800
H        0.78922700       1.97615600       1.10489800
H        1.17058600       2.31346100      -1.19586500
H       -0.30588900      -0.36262900      -1.68083800
H        1.21522700       0.05073200      -2.47018200
H       -0.21766500       1.00704600      -2.79277300
