16
Properties=species:S:1:pos:R:3 pbc="F F F"
C       -1.00576400       0.21072600      -2.82101100
C       -0.82414200       0.12934200      -1.62898600
C       -0.61166200       0.03068200      -0.18070000
C        0.15711300      -1.22902500       0.25853000
N        0.67977500      -0.87777200       1.58201400
C        0.89184700       0.58026800       1.65800100
C        0.22621600       1.18357900       0.41362400
H       -1.16441800       0.28512400      -3.86851600
H       -1.60058800       0.02552100       0.30911400
H        0.96480400      -1.46375000      -0.46206200
H       -0.49263000      -2.11756700       0.30839900
H        1.52207800      -1.40315600       1.81742800
H        1.96629200       0.82870400       1.69605800
H        0.45211100       0.98707100       2.58680300
H        0.98143300       1.51255900      -0.30566000
H       -0.38915200       2.05646800       0.64759700
