15
Properties=species:S:1:pos:R:3 pbc="F F F"
C       -0.97945600       2.45118700       0.73524800
C       -0.96955200       1.14230400       1.04529800
C       -0.23231100       0.12165900       0.32105400
N       -0.27791500      -1.14473700       0.66818100
N        0.57085100      -1.88447700      -0.14009600
C        1.02047400      -1.07523200      -1.28865900
C        0.65566300       0.35687300      -0.88943500
H       -1.55562200       3.15856800       1.31724100
H       -0.41369700       2.84000500      -0.10310100
H       -1.55267500       0.79302600       1.89715000
H        0.21115200      -2.81943300      -0.35217600
H        0.50965100      -1.39186300      -2.21585900
H        2.09946000      -1.21106700      -1.46587300
H        0.14082300       0.90509000      -1.68612500
H        1.54145000       0.94942600      -0.62888700
