19
Properties=species:S:1:pos:R:3 pbc="F F F"
C       -2.63921300       1.23842800       1.15546000
C       -1.15838800       0.95635500       1.01609800
N       -0.45886600       1.55593700      -0.12979400
C       -0.61863800       0.09444000      -0.08041000
C        0.60918300      -0.77848200       0.13757600
C        1.40574200      -1.00627200      -1.15363700
N        2.54716800      -1.89226700      -0.91202700
H       -2.81065300       2.21069300       1.61666100
H       -3.12316300       0.48724500       1.77959400
H       -3.12689500       1.23762500       0.18390100
H       -0.59891600       0.95552300       1.96111400
H        0.49393300       1.81942700       0.13304100
H       -1.33172700      -0.28965500      -0.82010900
H        1.25924200      -0.31868800       0.89144500
H        0.30472500      -1.74912300       0.54658000
H        1.72064100      -0.02622400      -1.56868700
H        0.75765700      -1.46751900      -1.91281500
H        3.16277900      -1.50182500      -0.20317200
H        3.08215800      -2.02998600      -1.76532200
