16
Properties=species:S:1:pos:R:3 pbc="F F F"
C       -3.09934500      -1.67525900       0.38529400
C       -1.72880500      -1.18648700       0.46354400
C       -0.59123000      -0.78157100       0.53573400
C        0.78989300      -0.29130100       0.61146000
C        1.22280300       0.45156500      -0.65078700
C        1.06105900       1.92776400      -0.76159500
N        2.38775000       1.33615300      -0.57567300
H       -3.24639700      -2.27390400      -0.51535400
H       -3.80698100      -0.84464800       0.35925800
H       -3.33926700      -2.29785400       1.24908000
H        1.46350200      -1.14347300       0.78614200
H        0.89524600       0.36819200       1.48400400
H        1.16947800      -0.13857000      -1.57238900
H        0.63681400       2.47548700       0.08212500
H        0.88791200       2.38411000      -1.73714500
H        2.69920200       1.44932200       0.39208600
