15
Properties=species:S:1:pos:R:3 pbc="F F F"
N       -1.97969400      -0.41637900      -0.49600800
C       -0.72760600      -0.39413400      -0.13714200
N        0.05037900      -1.48385500       0.23503400
C        1.42962300      -1.09681100       0.45786000
C        1.38240400       0.39690900       0.30099200
C        0.14097700       0.80189100      -0.03668200
C       -0.33385500       2.19243200      -0.29541300
H       -2.37251300      -1.36139000      -0.49604500
H       -0.21710500      -2.44279300       0.04317500
H        2.11731000      -1.57297300      -0.26945800
H        1.79217000      -1.40436600       1.45843800
H        2.24697800       1.03506300       0.44847900
H        0.47114700       2.91701000      -0.19202800
H       -1.13312000       2.45844900       0.39690100
H       -0.74892200       2.27092200      -1.30033800
