20
Properties=species:S:1:pos:R:3 pbc="F F F"
C        0.29598700      -0.86452400      -2.67102900
C        1.20187300      -0.17953900      -1.69652100
C        1.10512200      -0.17968200      -0.35953000
C        0.06902700      -0.88398000       0.47602300
C       -0.81534200       0.07163800       1.31594100
N       -1.60294600       0.93524300       0.41719500
C        0.00310800       0.88755700       2.33924600
H       -0.11745000      -0.14478800      -3.37931700
H       -0.53125100      -1.37261600      -2.18354000
H        0.84958100      -1.60021000      -3.25770900
H        2.02691500       0.37401200      -2.14687200
H        1.85760100       0.37673900       0.20055100
H        0.57804600      -1.57292800       1.16337500
H       -0.58136000      -1.49399600      -0.15577300
H       -1.52785700      -0.55730300       1.88512300
H       -0.98362000       1.42626300      -0.22385200
H       -2.12594000       1.62383000       0.95297700
H        0.69743000       1.56374300       1.84520300
H        0.57713300       0.23346300       2.99250800
H       -0.65725000       1.48827100       2.96218100
