19
Properties=species:S:1:pos:R:3 pbc="F F F"
N       -1.59382600      -0.54791300       1.63595700
C       -0.64608400      -1.27743500       0.79242000
C        0.07150700      -0.38342900      -0.22903000
C        1.15300200      -1.12621300      -1.00252200
C       -0.72305400       0.67114500      -0.97723100
C        0.24990200       1.09388600       0.07720800
N        1.44359000       1.83298400      -0.30895100
H       -1.99919300      -1.16989300       2.33020300
H       -2.34822000      -0.15408400       1.07911700
H       -1.13800700      -2.11966800       0.25516500
H        0.10673000      -1.74375900       1.44774000
H        0.73790700      -1.98786300      -1.52687300
H        1.93040800      -1.49810000      -0.33356200
H        1.62670000      -0.48520600      -1.74277300
H       -1.78567400       0.76690900      -0.77288500
H       -0.45279600       0.85135800      -2.01338300
H       -0.18031000       1.43982200       1.02148900
H        1.68787100       1.65482200      -1.27887500
H        2.23460000       1.58244200       0.28052200
