18
Properties=species:S:1:pos:R:3 pbc="F F F"
C       -1.69718500       0.73257700      -0.92354800
C       -0.30371300       0.27125200      -0.51282400
C        0.40857700      -0.69363200      -1.40638500
N        0.82108800       0.71233300      -1.35948100
C       -0.06824100       0.27192600       0.99293000
C       -0.09128400      -1.00613500       1.78134300
C        1.19174600      -0.25996000       1.60006100
H       -1.81422600       0.71870700      -2.00546500
H       -1.89066100       1.74816000      -0.57787000
H       -2.46671500       0.09121800      -0.49432400
H       -0.09106900      -1.03272400      -2.31664200
H        1.12784400      -1.40226600      -0.99367500
H        0.47886900       1.21263300      -2.18333300
H       -0.50261700       1.13769600       1.49831600
H       -0.21273900      -1.93782700       1.23729000
H       -0.55395100      -0.99748100       2.76334900
H        1.94017200      -0.68481000       0.93997900
H        1.59808200       0.26418900       2.45928300
