17
Properties=species:S:1:pos:R:3 pbc="F F F"
C       -0.57419900      -2.53550500       0.23836600
C       -0.63624400      -1.02777900       0.11387500
N       -0.99274800      -0.46981300      -1.19702000
C        0.37518600      -0.26688100      -0.68341200
C        0.83511000       1.12627700      -0.30592700
C        0.00913700       2.04202300       0.52986500
N        1.21259900       1.42351500       1.08525800
H       -1.56813100      -2.95660100       0.38653500
H        0.04016500      -2.83239400       1.08819600
H       -0.15189300      -2.98102700      -0.65865300
H       -1.07121300      -0.51485200       0.98242500
H       -1.54511200       0.38417800      -1.08183600
H        1.12652200      -0.85485500      -1.22438500
H        1.50066900       1.59306000      -1.04237400
H       -0.95518900       1.69474000       0.90795000
H        0.07017500       3.11934400       0.36945400
H        0.96111100       0.64367500       1.69843000
