16
Properties=species:S:1:pos:R:3 pbc="F F F"
C       -1.85548500       0.20686700      -0.21248500
C       -0.53576700       0.45558700      -0.08912200
C        0.39735600      -0.55922300       0.50900200
C        0.62637300      -1.88642700      -0.14754200
N       -0.18144200      -1.78779400       1.06126600
C        0.01727500       1.73341000      -0.56369000
C        1.31360900       2.07382900      -0.59213800
H       -2.27528000      -0.72903600       0.13431600
H       -2.52236400       0.93594800      -0.65805400
H        1.25096700      -0.14398000       1.05952400
H        1.61104400      -2.35278800      -0.06206100
H        0.07726700      -2.13585100      -1.05623500
H        0.34520400      -2.10099800       1.87951400
H       -0.71749700       2.45022700      -0.93181300
H        2.09583200       1.40597400      -0.25073200
H        1.62476500       3.04080700      -0.96746900
