20
Properties=species:S:1:pos:R:3 pbc="F F F"
N       -2.59587600      -0.64836600       0.96688500
C       -1.37764700      -1.17785500       0.34837100
C       -0.15631400      -0.34130600       0.74262800
C        1.18957200      -0.72236400       0.09515400
C        1.41409300       0.75637700      -0.28471800
C       -0.03642600       1.07324700       0.13602000
C        1.81029300       1.05895300      -1.72493500
H       -3.41132800      -1.17345600       0.66221500
H       -2.72675500       0.32816400       0.71526200
H       -1.45915600      -1.21740700      -0.75897500
H       -1.23497200      -2.21716100       0.68228700
H       -0.07903700      -0.30953000       1.83808800
H        1.07759100      -1.37546600      -0.77443000
H        1.93584200      -1.16566500       0.76054100
H        2.13472100       1.23222100       0.39598000
H       -0.70410400       1.23434400      -0.71462000
H       -0.16247300       1.90843300       0.83063900
H        1.11109100       0.61166200      -2.42885700
H        2.80224300       0.66769300      -1.94494100
H        1.82604300       2.13241100      -1.90650000
