16
Properties=species:S:1:pos:R:3 pbc="F F F"
C       -1.35829300      -1.86312900       0.52213100
C       -0.53901100      -1.18343500      -0.27776300
C        0.25931200       0.06995800       0.09711900
C       -0.07182200       1.13384200      -0.88849900
N       -0.32036700       1.95797600      -1.65196000
C       -0.06164400       0.58727600       1.51464000
C        1.77390500      -0.24890000      -0.01971000
H       -1.86729600      -2.75035300       0.16493000
H       -1.55191000      -1.56350200       1.54516700
H       -0.38400900      -1.53160500      -1.29914300
H       -1.11875300       0.82023400       1.61718700
H        0.50676100       1.49020300       1.72510500
H        0.20009000      -0.15842900       2.26199400
H        2.01887700      -0.60807500      -1.01667600
H        2.05326300      -1.01633800       0.69843500
H        2.37085600       0.63836900       0.17920700
