20
Properties=species:S:1:pos:R:3 pbc="F F F"
C        0.52888300      -0.49503700      -2.34271400
C       -0.33444700      -1.25192900      -1.33906900
C       -0.43453600      -0.62728800       0.06403200
C        0.90783900      -0.49324900       0.84079200
C        0.74850300       0.76929000       1.70084400
C       -0.62704000       1.36450400       1.31099000
N       -1.02854000       0.72981200       0.04411100
H        0.55698100      -1.02577800      -3.29213500
H        1.55370800      -0.38976100      -1.99193800
H        0.13814500       0.50225300      -2.53553700
H        0.05227100      -2.27197200      -1.23632500
H       -1.34586200      -1.35094600      -1.74729700
H       -1.10365100      -1.27970800       0.66203200
H        1.75185700      -0.38787200       0.15317500
H        1.10866500      -1.38142200       1.44599800
H        1.55364100       1.48248600       1.50054000
H        0.79434900       0.54291000       2.76970300
H       -0.60155200       2.45433800       1.19437800
H       -1.37090100       1.14147500       2.09322000
H       -0.62309100       1.25756500      -0.73384400
