20
Properties=species:S:1:pos:R:3 pbc="F F F"
C       -1.07188300       1.35661200      -0.29052900
C        0.35070100       0.78281400      -0.17258300
C        0.67036000       0.31981700       1.24529200
C        0.10416800      -0.66203300       1.96036300
C       -1.00689800      -1.58126300       1.56010600
C        0.62709800      -0.32266500      -1.22259000
N        0.70824100       0.24046600      -2.57299600
H       -1.23266700       2.13602700       0.45103600
H       -1.83035900       0.59145400      -0.14030700
H       -1.23055100       1.79647400      -1.27370900
H        1.04592600       1.60673800      -0.39407600
H        1.47377700       0.87347200       1.73288400
H        0.48689800      -0.83170000       2.96807700
H       -1.38270100      -1.37879100       0.56183500
H       -1.83943800      -1.49867400       2.26105600
H       -0.67212900      -2.61979200       1.59279300
H       -0.14605400      -1.11492500      -1.15280900
H        1.58706700      -0.80602600      -0.99308400
H       -0.16549100       0.69202100      -2.83067500
H        0.90676000      -0.48924200      -3.25240500
