19
Properties=species:S:1:pos:R:3 pbc="F F F"
C        2.09473200      -1.16658100       1.09725500
C        1.00288900      -1.02854300       0.04090600
C       -0.30252400      -0.49940400       0.62245400
C       -0.67748900       0.97639200       0.53197900
C       -1.44737800      -0.05902300      -0.25244600
N       -1.34744300      -0.14868600      -1.70177400
N        0.16086500       1.93003500      -0.17441300
H        3.01288900      -1.55185900       0.65818300
H        1.78890000      -1.84946800       1.88731100
H        2.31964400      -0.20669900       1.55775500
H        0.83253900      -2.00513300      -0.42930500
H        1.35470300      -0.36157200      -0.75450800
H       -0.59904800      -0.99536500       1.54958100
H       -1.17556300       1.39748000       1.41437500
H       -2.45141500      -0.30001100       0.11880200
H       -0.38716300      -0.27845900      -2.00491300
H       -1.72917800       0.68238700      -2.14876100
H        0.21486900       1.70471100      -1.16469700
H        1.10348100       1.95749900       0.20859200
