18
Properties=species:S:1:pos:R:3 pbc="F F F"
C       -2.44223500       0.01590300      -0.79239200
C       -0.93691900       0.01805100      -0.63606100
C       -0.30270100      -0.77249600       0.47824000
C       -0.31237200       0.72918300       0.53558000
C        1.12128600       1.19653200       0.35065000
N        1.83199700       0.01797000      -0.17284700
C        1.13688200      -1.20605500       0.25919900
H       -2.77720300      -0.84273100      -1.37463200
H       -2.78623900       0.91350300      -1.30671700
H       -2.93909900      -0.02373200       0.17497000
H       -0.38337700       0.05817100      -1.57543700
H       -0.94091700      -1.36661800       1.13215400
H       -0.95776200       1.26344500       1.23269900
H        1.53981300       1.54132700       1.31965500
H        1.21527300       2.04978200      -0.34583700
H        2.82006800       0.01502700       0.08221100
H        1.56018800      -1.61792200       1.19951300
H        1.24162400      -2.00274800      -0.49995200
