18
Properties=species:S:1:pos:R:3 pbc="F F F"
C        0.74640300      -1.24435200       0.49892900
C       -0.47712400      -1.48605400      -0.39495000
C       -1.60319900      -0.51572800      -0.14092500
C       -1.47271900       0.77772200       0.17754000
C       -0.17973100       1.55250900       0.29051800
N        0.90487100       1.02288900      -0.54758400
C        1.65171400      -0.10894200       0.01085500
H        1.34153500      -2.16286100       0.56200900
H        0.40595000      -1.03424700       1.51814000
H       -0.85125400      -2.50290400      -0.22569800
H       -0.17880300      -1.44962600      -1.45129200
H       -2.61068500      -0.92811800      -0.21318200
H       -2.37872400       1.35486000       0.36728900
H        0.12005700       1.62934500       1.36124700
H       -0.36910900       2.58725700      -0.03343900
H        1.55747400       1.77477700      -0.77836000
H        2.31116400       0.20639700       0.85050100
H        2.32623500      -0.48603600      -0.77592900
