20
Properties=species:S:1:pos:R:3 pbc="F F F"
C        1.37222000       0.89779500       1.02124000
N        0.07472800       1.13161500       0.39804700
C       -0.22896300       0.44518400      -0.85749500
C        0.75100300      -0.43748300      -1.56070500
C       -0.51449000      -1.03939200      -1.00280600
C       -0.45776200      -2.02528200       0.14444200
C       -1.04397800       1.16924900       1.33935100
H        1.50486300       1.60221400       1.84908100
H        2.17633600       1.06954400       0.30048300
H        1.50254200      -0.11992000       1.43733200
H       -0.84259800       1.07220200      -1.52360100
H        1.67900900      -0.68591700      -1.05743900
H        0.84408400      -0.34442100      -2.63942700
H       -1.27388800      -1.28625300      -1.74845400
H        0.33937300      -1.78294400       0.84207300
H       -0.28175800      -3.03665300      -0.22482000
H       -1.39691500      -2.04066200       0.69758500
H       -0.84219100       1.90169000       2.12804100
H       -1.24360200       0.19941200       1.83183300
H       -1.95653000       1.46996900       0.81683200
