14
Properties=species:S:1:pos:R:3 pbc="F F F"
C       -1.14780100       0.87043700      -1.91340900
C       -0.69321200      -0.02114700      -1.03486000
C       -0.01127600       0.35270500       0.26971600
C       -0.76054600      -0.19846300       1.41653800
N       -1.34548400      -0.61729200       2.31439800
C        1.44622700      -0.08606500       0.33857200
C        2.17716900      -0.45911900      -0.71048800
H       -1.62791900       0.55671200      -2.83237500
H       -1.05641700       1.93685600      -1.73932100
H       -0.80088100      -1.08678700      -1.23244500
H       -0.03560200       1.45338000       0.37967800
H        1.89808600      -0.05367000       1.32956600
H        1.75941000      -0.50186500      -1.70970500
H        3.21833400      -0.73366900      -0.59259800
