20
Properties=species:S:1:pos:R:3 pbc="F F F"
N       -3.19055300       0.23069800       0.09107800
C       -1.78650800      -0.16362200      -0.07866600
C       -0.87618700       0.96074600       0.41605400
C        0.62542900       0.81303100       0.35991800
C        1.45620500      -0.16908700      -0.04165000
C        1.09486000      -1.51856700      -0.60443600
C        2.94896500       0.05181900       0.05659900
H       -3.81127600      -0.49823900      -0.25063100
H       -3.38650500       1.08769000      -0.42006300
H       -1.56098000      -0.40341300      -1.13803900
H       -1.61807100      -1.08127100       0.50152600
H       -1.14713700       1.18641200       1.45689900
H       -1.13455900       1.87733300      -0.13559900
H        1.11927500       1.71244100       0.73518300
H        0.02967800      -1.70761500      -0.64424900
H        1.55428500      -2.30817300      -0.00750300
H        1.49335700      -1.62239200      -1.61545300
H        3.18599900       1.02834300       0.47190600
H        3.41945000      -0.02373200      -0.92519300
H        3.41376900      -0.70819800       0.68675800
