20
Properties=species:S:1:pos:R:3 pbc="F F F"
C       -2.54400500      -0.06144400      -0.49552600
C       -1.02724900      -0.20680500      -0.61741100
C       -0.45162500      -1.39129600       0.18686300
C        1.01885100      -1.03615200       0.39447000
C        1.02804300       0.50721200       0.59594500
C       -0.23896200       1.03259500      -0.12841500
N        2.25252200       1.17226400       0.12251100
H       -3.05090000      -0.94739300      -0.87389200
H       -2.90047300       0.79559900      -1.06398500
H       -2.84396900       0.07753000       0.54163200
H       -0.78509700      -0.37082500      -1.67961400
H       -0.58746700      -2.34635300      -0.32835400
H       -0.95961600      -1.47215700       1.15349300
H        1.59975300      -1.30052300      -0.49537600
H        1.46607300      -1.56926000       1.23813800
H        0.93921100       0.72116600       1.67595200
H        0.02607700       1.68414400      -0.96487200
H       -0.84600300       1.63607300       0.55277000
H        2.40149800       0.98496500      -0.86629000
H        3.06293900       0.83652200       0.63726700
