20
Properties=species:S:1:pos:R:3 pbc="F F F"
C       -1.46921200       0.39674600       1.88248400
C       -0.28036300       1.06390700       1.20553800
C        0.40424700       0.22383800       0.11280800
C        1.52248600       0.98130400      -0.59732000
C        0.51766000      -1.26835700       0.24892600
N       -0.47560200      -0.67690100      -0.65477800
C       -0.26779600      -0.83848400      -2.09352400
H       -1.95667800       1.09082600       2.56426400
H       -1.16257300      -0.47436000       2.45819800
H       -2.20138900       0.07168100       1.14720700
H        0.46633100       1.33754300       1.96181900
H       -0.60853100       2.01058300       0.75858900
H        2.21284200       1.40712800       0.13060500
H        1.12391100       1.80623600      -1.18820400
H        2.09628200       0.33818500      -1.25982700
H        0.11222000      -1.78446700       1.12163400
H        1.37690700      -1.76244700      -0.21355300
H       -0.82906700      -1.71034800      -2.44658300
H        0.78558100      -0.98475200      -2.37980200
H       -0.64875100       0.03877100      -2.62437900
