18
Properties=species:S:1:pos:R:3 pbc="F F F"
C        0.34245000      -0.81677300       2.53259500
C       -0.58225100      -1.09491200       1.34776000
C       -0.22448200      -0.31364700       0.11028700
C        0.12000800      -0.81533200      -1.08510700
C        0.37591700       0.27929500      -2.07914700
N        0.24183800       1.52095600      -1.29611300
C       -0.24426800       1.19319000       0.05449500
H        0.03921000      -1.39946300       3.40026100
H        0.32079900       0.23502900       2.81029700
H        1.37121800      -1.07784800       2.29518100
H       -1.61346400      -0.85486300       1.64149700
H       -0.56699300      -2.16553200       1.11870000
H        0.20617600      -1.87101500      -1.32369800
H       -0.34164400       0.24787100      -2.92394200
H        1.38034400       0.19713200      -2.54294600
H       -0.34554200       2.21100300      -1.76262100
H       -1.26208100       1.59353600       0.23564900
H        0.39486200       1.64653300       0.83911600
