18
Properties=species:S:1:pos:R:3 pbc="F F F"
C        0.17825600       1.09526400       2.07435700
C       -0.10563600       1.13384800       0.58766100
C        0.90048700       1.65739200      -0.38652700
N        0.64741200       0.21700900      -0.27785900
C       -0.09185400      -0.38895100      -1.39431300
C       -0.77034300      -1.68065100      -1.02741800
C       -0.70978000      -2.27521400       0.16388400
H       -0.08806300       2.04062600       2.54712500
H        1.23240800       0.90870400       2.26410100
H       -0.39601500       0.30899800       2.56372800
H       -1.16005600       1.28908300       0.32060100
H        1.87955600       1.98785500      -0.03524100
H        0.53909000       2.16642800      -1.28425800
H        0.61581400      -0.58194200      -2.22035900
H       -0.84995800       0.30835800      -1.81490700
H       -1.34781700      -2.14456600      -1.82890500
H       -0.13993500      -1.84207900       0.97692700
H       -1.22368500      -3.21065900       0.35033600
