19
Properties=species:S:1:pos:R:3 pbc="F F F"
N       -1.09894200       0.08728000      -1.85254400
C       -0.64777500      -0.32073900      -0.51485100
C        0.39040400      -1.47786900      -0.49566600
C        1.32993700      -1.16413000       0.67875700
N        0.86278200       0.10753300       1.25500400
C        0.06456500       0.82266500       0.24161400
C       -0.88142400       1.84659700       0.87292500
H       -1.58271400      -0.67649500      -2.31847800
H       -0.30870100       0.36654600      -2.42967500
H       -1.53920800      -0.63140000       0.05731000
H        0.94628800      -1.50831500      -1.43851000
H       -0.09131800      -2.45403100      -0.38853000
H        2.37874400      -1.09305200       0.33208200
H        1.31605000      -1.96269900       1.44105300
H        1.63271200       0.67502700       1.61231400
H        0.72950800       1.35992100      -0.47714900
H       -1.54883800       1.37384100       1.59079300
H       -1.49008000       2.32551500       0.10914900
H       -0.32356400       2.62230800       1.39573800
