20
Properties=species:S:1:pos:R:3 pbc="F F F"
C       -2.52200600       0.02246700      -0.42967100
C       -1.06007900       0.01832100      -0.86251300
C       -0.16580400      -1.09117800      -0.26300600
C        0.81331000       0.00798100       0.27489500
C       -0.15126100       1.10636800      -0.24794700
C        1.02133900      -0.01093500       1.79419300
N        2.12661100       0.04666800      -0.39588100
H       -3.04182900      -0.85537700      -0.80981000
H       -3.03624400       0.90539900      -0.80555600
H       -2.61142300       0.02023400       0.65485300
H       -1.01161000       0.02446700      -1.96102600
H        0.26292300      -1.78067000      -0.99441700
H       -0.65250400      -1.67994400       0.51748500
H        0.28958500       1.79865700      -0.96847000
H       -0.62939700       1.69214000       0.54031900
H        0.06895200      -0.01856200       2.31923000
H        1.58026900       0.86457200       2.11756200
H        1.58058400      -0.89494700       2.09754600
H        2.01211600       0.03619200      -1.40640500
H        2.68930600      -0.75697400      -0.12584400
