19
Properties=species:S:1:pos:R:3 pbc="F F F"
C       -0.79183900       0.15877300      -1.83957200
C       -0.72367200      -0.02663100      -0.32552800
C        0.14333200      -1.18862300       0.27303000
N        1.05299200      -1.90431300      -0.62421700
C        0.82427900      -0.12270400       1.15084900
N        0.14657200       0.95560800       0.39052100
C       -0.51095400       2.01380300       1.14978900
H       -1.36968700      -0.63955300      -2.30275100
H        0.20124900       0.15916200      -2.28473200
H       -1.26759700       1.10541800      -2.08919600
H       -1.75369600      -0.04314600       0.08897100
H       -0.44918300      -1.93002500       0.83691900
H        1.65645400      -1.25009900      -1.11669900
H        0.53130300      -2.44324200      -1.31167300
H        1.92385200      -0.07536800       1.10097000
H        0.53269800      -0.16661600       2.21446800
H        0.23556500       2.60192500       1.69150800
H       -1.24098900       1.63170600       1.88835100
H       -1.04379100       2.68306200       0.46832700
