20
Properties=species:S:1:pos:R:3 pbc="F F F"
C        2.47867600       0.70292300       0.53526400
C        1.27756200       0.88093000      -0.38791900
C        0.02473200       0.12923600       0.08637800
C       -0.58841700       0.65059600       1.37907300
N        0.05912700      -1.33310800      -0.11920500
C       -0.84285400      -0.52077500      -0.95650800
C       -2.34267300      -0.68462600      -0.82014600
H        3.35253300       1.21170800       0.13277900
H        2.72246000      -0.35075500       0.64785500
H        2.28350100       1.10985000       1.52567800
H        1.54346300       0.53024800      -1.38994100
H        1.04404000       1.94838200      -0.48335900
H       -1.41476700       0.02776900       1.71389000
H       -0.96167200       1.66711100       1.25327300
H        0.15206300       0.67217500       2.17780700
H       -0.47531500      -1.80538600       0.61470800
H       -0.50218600      -0.44118000      -1.99679400
H       -2.64096100      -0.86551700       0.21006200
H       -2.69220800      -1.52672000      -1.41721100
H       -2.86699200       0.20436800      -1.17116300
