15
Properties=species:S:1:pos:R:3 pbc="F F F"
C       -2.37906500       1.00152800       1.25765100
C       -0.89753000       0.74539300       1.08207900
N       -0.22984500       1.37332000      -0.06354200
C       -0.37037300      -0.08594700      -0.04599900
C        0.87575300      -0.94870700       0.15351100
C        1.61202200      -1.17522400      -1.09167900
N        2.19528700      -1.36310900      -2.06534400
H       -2.55234000       1.95666700       1.75174900
H       -2.83990100       0.22462600       1.86716100
H       -2.88407000       1.02494800       0.29555000
H       -0.31758900       0.72327600       2.01473300
H        0.72424100       1.65462000       0.17441600
H       -1.08184300      -0.47253200      -0.78336100
H        1.55080000      -0.47848800       0.87913500
H        0.59776000      -1.92685300       0.56944300
