17
Properties=species:S:1:pos:R:3 pbc="F F F"
C        0.29060500      -0.11403800       1.94404800
C       -0.77460000      -0.01840900       0.83344900
C       -0.64139900       1.25787900      -0.01020700
C        0.63163100       1.21662000      -0.85167100
C        0.89555600      -0.17567700      -1.38285600
N        0.29673500      -1.26157800      -1.00164500
N       -0.73193800      -1.18804500      -0.06881600
H        0.24718200       0.75348400       2.59965500
H        1.29026400      -0.17002000       1.52091000
H        0.13336200      -1.00412400       2.55115600
H       -1.77204200      -0.02177000       1.31708600
H       -0.65486600       2.14388800       0.63405600
H       -1.51265000       1.33350500      -0.66881400
H        1.49436700       1.54941600      -0.25622800
H        0.56077900       1.92686700      -1.68502300
H        1.67044500      -0.28475100      -2.15215600
H       -0.82118000      -2.07738800       0.43600600
