20
Properties=species:S:1:pos:R:3 pbc="F F F"
C       -0.94327900      -2.17080000      -1.00974900
C       -0.46803700      -1.80237900       0.39074700
C       -1.15408600      -0.55620600       0.96947400
C       -0.77625700       0.76261700       0.27789100
C        0.68053000       1.15762600       0.48461100
C        1.71734300       0.87160100      -0.54667800
N        1.24250400       2.23980000      -0.33047900
H       -0.45088300      -3.07690900      -1.35675800
H       -0.72621700      -1.37960400      -1.72444900
H       -2.01724200      -2.34625200      -1.02435700
H        0.61654200      -1.65352600       0.38210500
H       -0.65582100      -2.64683800       1.06259800
H       -0.90622900      -0.48027100       2.03430200
H       -2.24015200      -0.68701000       0.91633500
H       -1.42045600       1.55715800       0.67567800
H       -0.99341200       0.70102400      -0.79372400
H        1.00398400       1.18174100       1.53270300
H        1.41668900       0.38059700      -1.47436500
H        2.74955200       0.68479600      -0.24593900
H        0.58883500       2.51173300      -1.06855800
