16
Properties=species:S:1:pos:R:3 pbc="F F F"
C       -2.38648300       0.20217000       0.06673500
C       -0.92253100      -0.07260400       0.07595600
C       -0.22390700      -1.14044700       0.49717200
C        1.22296200      -0.70942100       0.19709300
C        1.21612300       0.73794900       0.74426100
C        0.20462700       0.86055000      -0.41961200
N        1.04113800      -0.13891600      -1.20173300
H       -2.94794000      -0.62878400       0.48891800
H       -2.74670300       0.37460200      -0.94961900
H       -2.62308800       1.10058000       0.64155300
H       -0.57890900      -2.06731100       0.93317700
H        2.05231000      -1.41319200       0.36303000
H        2.15122000       1.28064300       0.57362700
H        0.86530600       0.91323700       1.76698400
H       -0.04412700       1.81651500      -0.90530200
H        1.91921700       0.32693400      -1.46986800
