20
Properties=species:S:1:pos:R:3 pbc="F F F"
C       -1.21061000      -0.81509700       2.33117100
C        0.05537000      -1.23286300       1.59548800
C        0.48419900      -0.33012400       0.44010200
C        0.30420200       1.16014000       0.46219800
C       -0.49241300       0.32257100      -0.49726600
C       -0.25281800       0.37855500      -2.01609700
N        1.13817500       0.56985400      -2.43215800
H       -1.42456200      -1.51356000       3.13754700
H       -2.07258700      -0.80092600       1.66752300
H       -1.10793200       0.17572800       2.76840600
H       -0.07506500      -2.25309500       1.21298400
H        0.88096500      -1.29071500       2.31614400
H        1.41505900      -0.66729300      -0.02377000
H        1.11006000       1.77032000       0.06383400
H       -0.21955100       1.60770100       1.30062400
H       -1.54696400       0.20499700      -0.24049300
H       -0.62641700      -0.55078500      -2.47267800
H       -0.85756200       1.19422200      -2.44197100
H        1.71927700      -0.19939100      -2.10864000
H        1.51046900       1.43472600      -2.04797800
