17
Properties=species:S:1:pos:R:3 pbc="F F F"
C       -0.34774100       0.91739300      -1.55472700
C       -0.33726700       0.52711500      -0.08207900
C       -1.09313300       1.37983600       0.89050700
N        0.36512800       1.47074500       0.81183500
C       -0.20136400      -0.95832300       0.25197200
C        0.48431900      -1.92114300      -0.65627700
N        1.12769300      -1.49690500       0.58495600
H       -0.49478000       1.98904600      -1.66247200
H       -1.14855200       0.40828300      -2.09099200
H        0.59269400       0.66016100      -2.04162400
H       -1.51434800       0.91263800       1.78364900
H       -1.63201500       2.26141800       0.53907000
H        0.79473800       0.96782500       1.59261300
H       -0.99799700      -1.36533300       0.88895900
H        0.91233300      -1.55810800      -1.59225300
H        0.15886200      -2.96264800      -0.68041400
H        1.85043100      -0.79943100       0.38955300
