12
Properties=species:S:1:pos:R:3 pbc="F F F"
C       -2.57990700      -0.91649900       0.79208400
C       -1.36918400      -0.85777900       0.74139100
C        0.05776700      -0.85018000       0.73487900
C        0.81609700       0.00157900      -0.00130000
C        0.20669900       0.99094100      -0.85649600
N       -0.24690200       1.79418200      -1.55093500
C        2.31804200      -0.02743900       0.02383100
H       -3.64269100      -0.92939300       0.80318400
H        0.54931100      -1.58700000       1.37173900
H        2.68239700      -0.80265500       0.69374000
H        2.72107400       0.93100000       0.35384700
H        2.72112900      -0.21496700      -0.97231000
