20
Properties=species:S:1:pos:R:3 pbc="F F F"
C       -0.65875700       0.17845900      -1.92991800
C       -0.72656200       0.01943000      -0.41676600
C        0.04118000      -1.14942400       0.26613800
C        1.04854800      -1.92741300      -0.57817100
N        0.65817600      -0.18691900       1.22298300
C        0.13442100       0.97478900       0.45110400
C       -0.58716200       2.02934100       1.28783600
H       -1.15252200      -0.65144600      -2.43335000
H        0.36935200       0.22168800      -2.28451300
H       -1.15449300       1.09677500      -2.24105900
H       -1.77923200       0.02881500      -0.10013900
H       -0.62562700      -1.87123000       0.77980100
H        1.75194700      -1.26314100      -1.07701600
H        0.54562900      -2.52000800      -1.34035800
H        1.62192900      -2.60857900       0.04887900
H        1.67987600      -0.23354000       1.24728600
H        0.93263700       1.46183500      -0.14492900
H       -1.37398100       1.58116100       1.89074400
H       -1.03910800       2.78692200       0.64981300
H        0.10635900       2.52809100       1.96263200
