18
Properties=species:S:1:pos:R:3 pbc="F F F"
C       -1.40789400       1.36462400       1.24330700
C        0.06693300       1.02449500       1.29333600
C        1.01165700       1.55491300       0.25346800
C        0.70746800       0.08411400       0.30527300
C       -0.08968000      -0.57052400      -0.80088600
C       -0.49626600      -2.00421000      -0.71811400
N        0.59560600      -1.59098400      -1.60068300
H       -1.60626900       2.29816100       1.76937900
H       -2.00809900       0.58750700       1.71683900
H       -1.75616400       1.48031800       0.21953500
H        0.46897800       0.97494400       2.30731400
H        1.99446300       1.88838200       0.57238900
H        0.58753600       2.12687400      -0.56604300
H        1.49911000      -0.55037700       0.70575600
H       -0.76059800       0.09892100      -1.35488700
H       -1.42955000      -2.31856400      -1.19050500
H       -0.19521800      -2.60641500       0.14015400
H        0.28326300      -1.56333900      -2.57345000
