20
Properties=species:S:1:pos:R:3 pbc="F F F"
C        0.64082700       2.54497400      -0.68740900
C       -0.31633200       2.20375600       0.44765800
C       -0.11007400       0.79353600       1.02247400
C       -0.41757800      -0.31847300       0.02584000
N        0.65232100      -0.83132900      -0.84257800
C        0.12905500      -1.69655300       0.22484800
C       -0.64094900      -2.93213300      -0.19142100
H        0.45653800       3.55205300      -1.05615000
H        0.52347700       1.85442700      -1.51876900
H        1.67579500       2.49485700      -0.35413600
H       -1.34864000       2.30002400       0.09409800
H       -0.19831300       2.93528500       1.25469300
H       -0.75757400       0.67901400       1.90182800
H        0.91914400       0.68857000       1.38329600
H       -1.38490600      -0.22544200      -0.48243600
H        1.55458000      -0.43453200      -0.56907700
H        0.79740900      -1.84006100       1.08455100
H       -1.26677500      -2.72644300      -1.05616000
H       -1.28258400      -3.28372900       0.61648600
H        0.03590700      -3.74536700      -0.45211000
