20
Properties=species:S:1:pos:R:3 pbc="F F F"
C       -2.87946100      -0.23359000       0.84548200
C       -1.53228200      -0.94445200       0.76246900
C       -0.48504400      -0.12995600       0.01080300
N        0.26691800       0.90485300       0.73599800
C        0.97121800      -0.30857900       0.29906500
C        2.06903200      -0.17718100      -0.75354100
C        1.80405100       0.88202700      -1.81367100
H       -3.60094400      -0.83047500       1.39971800
H       -3.28545500      -0.05277500      -0.14775300
H       -2.78220600       0.72797400       1.34453400
H       -1.66636800      -1.91459800       0.26774200
H       -1.16940800      -1.16272900       1.77297100
H       -0.77921000       0.16944100      -1.00156800
H        0.06287200       0.85911600       1.73732600
H        1.21781900      -1.01843600       1.10183600
H        2.22122200      -1.15224000      -1.23419100
H        3.01315700       0.05416400      -0.24469400
H        0.94321600       0.62386000      -2.42737200
H        2.66353000       0.98697000      -2.47283500
H        1.60825900       1.84613700      -1.35134200
