20
Properties=species:S:1:pos:R:3 pbc="F F F"
N       -2.75843900      -1.38389100      -0.25789200
C       -1.30795400      -1.16855200      -0.25927000
C       -0.89584700      -0.25098900       0.89661200
C        0.61692800      -0.02831500       0.98637500
C        1.25560800       0.79395600      -0.11704100
C        0.57776900       1.60124900      -0.94451800
C        2.75489900       0.67908100      -0.20157000
H       -3.03348900      -1.97475700      -1.03802100
H       -3.25240700      -0.49834800      -0.33402300
H       -0.95477300      -0.74268300      -1.22023400
H       -0.80884500      -2.14312100      -0.15370400
H       -1.23877600      -0.69203400       1.83815600
H       -1.41425600       0.70969900       0.80730100
H        1.12367300      -1.00058400       1.03373200
H        0.84795000       0.46005600       1.94364500
H       -0.49826600       1.70227400      -0.89258000
H        1.09568900       2.18335600      -1.69666100
H        3.21779000       0.94484800       0.74968100
H        3.16282600       1.32651300      -0.97328700
H        3.05353700      -0.34655300      -0.42229200
