16
Properties=species:S:1:pos:R:3 pbc="F F F"
C        0.29577400      -2.52732000      -1.25313700
C       -0.32936800      -1.45638600      -0.76492900
C        0.34798400      -0.37941800       0.07120600
N       -0.50245300       0.06231600       1.20584800
C       -0.53609500       1.53382000       1.25124500
C        0.11353700       1.95743300      -0.03308500
C        0.59839300       0.90438000      -0.69570500
H       -0.22493600      -3.26069900      -1.85738300
H        1.34916200      -2.70358100      -1.06283500
H       -1.38880800      -1.30920700      -0.97261000
H        1.31919400      -0.78720300       0.43736400
H       -0.20986100      -0.35135000       2.09076300
H        0.00460200       1.93614800       2.13207400
H       -1.57281600       1.91607300       1.34070800
H        0.17904800       2.99226600      -0.35565800
H        1.12023800       0.93629100      -1.64692800
