18
Properties=species:S:1:pos:R:3 pbc="F F F"
C        0.54489400       1.19319000       1.60877900
C       -0.04871300       0.07250400       0.73515400
C       -0.06161900       0.48032600      -0.74124600
C       -1.13516200       0.00137100      -1.65650800
N       -1.10880700       1.39466400      -1.20674000
C        0.67453600      -1.23521800       0.99621500
C        1.18242900      -2.05349000       0.07484700
H        0.49344400       0.93152300       2.66404700
H        0.00041200       2.12337000       1.46103800
H        1.58813100       1.37162300       1.35716900
H       -1.09772000      -0.07035200       1.05535900
H        0.92490700       0.68356400      -1.17409400
H       -1.92342300      -0.63791100      -1.25369300
H       -0.92202800      -0.15020400      -2.71580700
H       -1.80720100       1.54830200      -0.47526700
H        0.76701300      -1.50639800       2.04917500
H        1.12274400      -1.83444600      -0.98455200
H        1.67717900      -2.97381300       0.36035300
