15
Properties=species:S:1:pos:R:3 pbc="F F F"
C        0.36015000      -1.17078300       2.27477100
C       -0.71442400      -0.38923700       1.52226400
C       -0.27437700       0.08710600       0.16517800
N       -0.40528400       1.32389900      -0.21947800
N        0.08487200       1.43592800      -1.58350100
C        0.49050300       0.26759500      -1.96990400
C        0.32636900      -0.78119400      -0.91111500
H       -0.01577600      -1.50389400       3.23956600
H        1.23954200      -0.55556400       2.45104400
H        0.67325600      -2.05065000       1.71555200
H       -1.03185400       0.47144200       2.11733900
H       -1.60066900      -1.02844400       1.40618100
H        0.90484600       0.10596700      -2.96642100
H        1.27717000      -1.23709300      -0.61239000
H       -0.33294800      -1.60146900      -1.21718000
