20
Properties=species:S:1:pos:R:3 pbc="F F F"
N        1.45029200      -1.51589200       1.58869800
C        1.38740700      -0.24971900       0.85126400
C       -0.05541900       0.17397400       0.61350800
C       -0.40086700       1.11937800      -0.50659500
C       -0.86336400      -0.31469100      -0.56443600
C       -0.30609000      -1.27252100      -1.59632600
C       -1.39203800       2.24354600      -0.28958500
H        2.41518300      -1.80716700       1.72139000
H        0.95520100      -2.24653100       1.08404700
H        1.93018300      -0.30450300      -0.11590300
H        1.90368100       0.52271000       1.44396700
H       -0.62911300       0.30407300       1.53309500
H        0.42365500       1.37261700      -1.17612200
H       -1.92377400      -0.47044900      -0.35501900
H        0.74056800      -1.06834000      -1.81054800
H       -0.85723400      -1.19533100      -2.53368500
H       -0.38340800      -2.30593400      -1.25693200
H       -2.19820500       1.93305500       0.37190800
H       -1.83696000       2.56421500      -1.23158900
H       -0.90958700       3.11302700       0.15752000
