17
Properties=species:S:1:pos:R:3 pbc="F F F"
N       -0.72548900      -0.70360900       1.86283100
C       -1.36425500       0.53071800       1.40088500
C       -1.31287900      -0.66937700       0.52013100
C       -0.37952700      -0.77689900      -0.68189500
C        0.94389500      -0.04672900      -0.49990100
N        1.02933000       1.33755300      -0.97550100
C        1.79590300       0.30199600      -1.67159500
H       -1.33468700      -1.20398700       2.51343400
H       -0.68769100       1.36573800       1.22087700
H       -2.31609500       0.80238700       1.86289200
H       -2.25383000      -1.22509500       0.40251200
H       -0.18249100      -1.84038400      -0.87948900
H       -0.88930100      -0.39254500      -1.57238000
H        1.46173300      -0.26373100       0.44156900
H        1.64182400       1.89125700      -0.37279100
H        2.88128400       0.31909600      -1.55213100
H        1.45354000       0.07140100      -2.68155100
