19
Properties=species:S:1:pos:R:3 pbc="F F F"
N       -0.54931900      -1.23653900      -1.40662800
C       -0.82882200      -1.48727600       0.01147400
C       -0.28507700      -0.45092000       0.99627100
C       -0.39159300       1.03638100       0.82935000
C        0.97894400       0.37950400       0.85308500
C        1.88556200       0.36319600      -0.35910800
N       -0.95272300       1.59820600      -0.38632300
H       -1.11232500      -1.85627100      -1.98374900
H        0.42996800      -1.41215300      -1.61498900
H       -0.45358800      -2.48744400       0.32055100
H       -1.92207100      -1.53314400       0.13149700
H       -0.45113000      -0.79016300       2.02333500
H       -0.66363400       1.60403300       1.72962100
H        1.52754500       0.49329800       1.79151300
H        1.34068400       0.59169400      -1.27221400
H        2.37876200      -0.60148100      -0.48852800
H        2.66785500       1.11397200      -0.24807700
H       -0.96620500       0.89609600      -1.12546600
H       -0.41565500       2.40457800      -0.69926900
