17
Properties=species:S:1:pos:R:3 pbc="F F F"
C       -1.85909400      -0.07381200       1.49209700
C       -0.48591700      -0.03447700       0.81462400
C       -0.26572400       1.24891000      -0.00030900
C        1.11424700       1.20946400      -0.65152400
C        1.45104100      -0.18092700      -1.14726700
N        0.79884900      -1.26783900      -0.86893400
N       -0.34750200      -1.19305700      -0.08675100
H       -1.97214200       0.75609200       2.18608600
H       -1.98997300      -0.99915900       2.05126600
H       -2.66157700      -0.01060400       0.75988400
H        0.29607000      -0.07846000       1.60910000
H       -0.36969800       2.13133800       0.64038500
H       -1.04012700       1.32425700      -0.77001800
H        1.88177100       1.53720300       0.06498700
H        1.16637200       1.92338700      -1.48301800
H        2.32580500      -0.28602900      -1.80081500
H       -0.52324700      -2.08670000       0.38621000
