16
Properties=species:S:1:pos:R:3 pbc="F F F"
C       -2.37696700      -0.21707800       0.11694500
C       -0.88261800      -0.26368300       0.09556800
C       -0.11164200      -1.31464800      -0.24283800
C        1.36472700      -1.01598000      -0.13043500
C        1.39670800       0.44441900       0.31302800
C       -0.01580100       0.91020200       0.46162900
N        0.82528300       1.37962400      -0.66729600
H       -2.80736000      -1.18331500      -0.13697600
H       -2.75593500       0.52016700      -0.59320400
H       -2.74702500       0.07357400       1.10222600
H       -0.48879300      -2.27504600      -0.58272700
H        1.88554700      -1.17258000      -1.08307800
H        1.85821800      -1.67250700       0.60036000
H        2.20836900       0.81190100       0.94969300
H       -0.33518000       1.65441800       1.19800300
H        1.15873600       2.32662900      -0.46660100
