16
Properties=species:S:1:pos:R:3 pbc="F F F"
C       -2.23367100       0.00012400       0.92541100
C       -1.06301500       0.00004600       0.27628800
C       -0.30985400       1.24935000      -0.14394600
C        1.04115300       0.74531900      -0.62858500
C        1.04107500      -0.74540600      -0.62863700
C       -0.31000400      -1.24930700      -0.14408900
N        1.79480000      -0.00012900       0.39336500
H       -2.72400200       0.92544300       1.20152600
H       -2.72410700      -0.92515400       1.20142300
H       -0.22295500       1.96461400       0.68151200
H       -0.84159800       1.77185300      -0.95069400
H        1.61502500       1.32780300      -1.35681600
H        1.61481500      -1.32792400      -1.35694500
H       -0.22325500      -1.96461900       0.68132300
H       -0.84187300      -1.77164900      -0.95086100
H        2.79024700      -0.00021500       0.15731900
