18
Properties=species:S:1:pos:R:3 pbc="F F F"
C        1.13552800       1.15644100      -2.15347200
C        0.58772600       0.11910500      -1.51906800
C       -0.84353600       0.06483900      -1.06263500
C       -1.01581400      -0.17901400       0.45237000
C       -0.31107100      -1.40798400       1.06281400
C        0.56288400      -0.42099600       1.84462400
N       -0.22456100       0.72390000       1.33360600
H        2.17148300       1.13941200      -2.46924300
H        0.56226500       2.04816700      -2.37959200
H        1.19724700      -0.76088600      -1.31127400
H       -1.36110500      -0.74135100      -1.60081800
H       -1.35070000       0.99695300      -1.33335000
H       -2.09957700      -0.13162600       0.68338100
H        0.21982200      -2.05403500       0.35877900
H       -0.95698000      -2.03573100       1.68186900
H        1.61950800      -0.40411700       1.53418400
H        0.53622000      -0.51737900       2.94191400
H        0.33943900       1.39893800       0.81110900
