15
Properties=species:S:1:pos:R:3 pbc="F F F"
N       -2.55655500       0.34490100      -0.16122900
C       -1.14595500       0.28500500      -0.05043100
C       -0.27730100       1.37221100      -0.00721700
N        1.00954300       0.85776100       0.04474200
C        0.97669500      -0.50237300       0.03035600
C       -0.36425900      -0.89909400      -0.03129400
C        2.22442200      -1.32702200       0.07786500
H       -2.95802600       1.19756200       0.21233500
H       -3.02206400      -0.48095800       0.19775900
H       -0.46300300       2.43715500      -0.00665700
H        1.85236900       1.41652600       0.08387900
H       -0.72560900      -1.91664200      -0.05924000
H        3.10938800      -0.69352800       0.09778100
H        2.30324200      -1.98527700      -0.78875800
H        2.25117400      -1.96583100       0.96262700
