18
Properties=species:S:1:pos:R:3 pbc="F F F"
C       -1.24174400       0.00179400      -2.08349700
C       -0.81355100       0.00193000      -0.61638400
C        0.02850200      -1.24110700      -0.21866000
C        0.98767000      -0.74815200       0.85447500
C        0.99189800       0.74383400       0.85343400
C        0.03543900       1.24081400      -0.22034700
N        0.39145900       0.00031500       1.96675600
H       -1.83334900      -0.88209900      -2.31483800
H       -0.37824000       0.00939800      -2.74643600
H       -1.84621200       0.87781500      -2.31148700
H       -1.72771300       0.00478400      -0.00173600
H        0.59436300      -1.61840000      -1.07815700
H       -0.60840900      -2.06397400       0.12380000
H        1.87234200      -1.34329700       1.10152400
H        1.88001800       1.33419400       1.09961100
H        0.60349800       1.61360200      -1.08038500
H       -0.59656500       2.06790700       0.12101900
H       -0.62923300       0.00318700       1.90566500
