20
Properties=species:S:1:pos:R:3 pbc="F F F"
C       -1.32400900       1.40019500      -1.88158400
C       -1.70057400       1.24779700      -0.41294800
C       -0.96280000       0.10143400       0.29403800
C        0.53889800       0.34527300       0.40390300
C        1.52386400      -0.37593900      -0.45961800
N        1.44039700      -0.66758100       0.97416100
C        0.88810900      -1.96395400       1.36792000
H       -1.88318800       2.21269900      -2.34082300
H       -1.53920100       0.48941800      -2.43680100
H       -0.26407200       1.61696500      -1.99503900
H       -2.77974800       1.07759700      -0.33386600
H       -1.49854200       2.18750600       0.11294700
H       -1.15708200      -0.83714700      -0.23440900
H       -1.38398700      -0.01602500       1.30067800
H        0.80101300       1.36801700       0.70961900
H        2.43917800       0.12285200      -0.78701300
H        1.14689400      -1.13795500      -1.14682000
H        1.70550800      -2.67297600       1.53633800
H        0.21252100      -2.40496900       0.61840000
H        0.33700300      -1.86174000       2.30739100
