20
Properties=species:S:1:pos:R:3 pbc="F F F"
C       -1.34358100       1.69950000       1.30791100
C       -1.16593400       0.21953900       0.98866900
C       -0.63946300      -0.03664100      -0.43078200
C       -0.50554700      -1.51763000      -0.83934500
N        0.96284300      -1.38990500      -0.92518800
C        0.89019800       0.08118100      -0.71029400
C        1.83818600       0.60507300       0.36683800
H       -1.73231600       1.83429400       2.31538000
H       -2.04178100       2.16552300       0.61502200
H       -0.40060800       2.23757700       1.23901200
H       -2.13298900      -0.28637100       1.09737100
H       -0.49883000      -0.24150200       1.72351000
H       -1.23897700       0.54915100      -1.14396000
H       -0.98692100      -1.76832900      -1.79939100
H       -0.83901100      -2.25928800      -0.09464700
H        1.35380100      -1.65986300      -1.83026700
H        1.07667000       0.64130900      -1.65040900
H        1.68931000       0.09212700       1.31394300
H        1.69681200       1.67197000       0.52920000
H        2.87178400       0.44660900       0.06357500
