16
Properties=species:S:1:pos:R:3 pbc="F F F"
C       -1.24482600       1.37270000      -2.32561200
C       -1.72136000       0.86162800      -1.19025500
C       -0.91617200       0.38185700      -0.01417400
C        0.60068700       0.51859500      -0.16198500
C        1.35826200       0.04289900       1.08675500
C        1.13435000      -1.37187100       1.38651500
N        0.96454400      -2.48372300       1.62946000
H       -1.91493100       1.68888800      -3.11526700
H       -0.18316500       1.49024800      -2.50489400
H       -2.80123400       0.76666100      -1.06944900
H       -1.16914700      -0.66853000       0.17939100
H       -1.24793700       0.92578100       0.88096800
H        0.86505600       1.56419600      -0.34881100
H        0.94154000      -0.05094400      -1.03153100
H        1.05713300       0.63304600       1.96119900
H        2.43522700       0.20187400       0.95471100
