15
Properties=species:S:1:pos:R:3 pbc="F F F"
N       -2.61587300      -0.02490300       0.13707200
C       -1.48238600      -0.01480400      -0.06665400
C       -0.03012600      -0.00082900      -0.30310400
C        0.27785000       0.00049000      -1.80685900
C        0.74159900       1.07002800       0.52382100
N        1.58583100       0.01696700       1.11826300
C        0.76322100      -1.05418700       0.52581400
H       -0.15329500       0.87506100      -2.29113100
H       -0.13002500      -0.88707200      -2.28766700
H        1.35269100       0.01431700      -1.97321800
H        0.11955800       1.60828600       1.25505500
H        1.30358400       1.81229700      -0.06495400
H        1.60410800       0.01812800       2.14009700
H        0.15243400      -1.60384100       1.25805000
H        1.34030100      -1.78582200      -0.06169000
