19
Properties=species:S:1:pos:R:3 pbc="F F F"
N       -1.68022700       1.49739600      -0.32885900
C       -0.24456500       1.79665400      -0.27727600
C        0.67452300       0.57467800      -0.34062800
C        0.37670000      -0.59775400      -1.24701700
C        0.39947300      -0.80779900       0.23699400
C        1.57629800      -1.55206100       0.85410300
N       -0.86740100      -1.12591600       0.89105200
H       -2.19523400       2.31644300      -0.63990900
H       -2.02877700       1.23802500       0.58986700
H        0.00995000       2.39089500       0.62639200
H       -0.01180400       2.44650800      -1.13416800
H        1.72728100       0.86640200      -0.32205400
H        1.18836300      -0.99332000      -1.85116200
H       -0.59288600      -0.59736700      -1.73371800
H        2.50615100      -1.31059000       0.34452200
H        1.42785700      -2.62947100       0.79710200
H        1.69241600      -1.29474600       1.90702400
H       -1.65241700      -0.83083500       0.31793800
H       -0.93208300      -0.68461500       1.80575400
