17
Properties=species:S:1:pos:R:3 pbc="F F F"
C       -0.81399100      -0.43017200       2.17383300
C       -0.88165200      -0.10885300       0.69524600
N        0.26387800       0.57507300       0.08247100
C       -0.02691100      -0.80235100      -0.34396000
C        0.97370800      -1.88667800      -0.00380800
N       -0.03712600       1.63381200      -0.80016200
C        0.44338800       1.57765100      -1.99435300
H       -1.14829500       0.41968900       2.76795700
H        0.19985800      -0.67283800       2.48207400
H       -1.45505100      -1.27648400       2.41984200
H       -1.86742300       0.22184500       0.34564400
H       -0.47693300      -0.89148000      -1.34135600
H        1.45755200      -1.69540700       0.95071200
H        1.75106000      -1.94730200      -0.76507300
H        0.49096300      -2.86241500       0.05120500
H        0.27631900       2.42325000      -2.66509500
H        1.01742900       0.72136900      -2.38382900
