20
Properties=species:S:1:pos:R:3 pbc="F F F"
N       -1.89080700      -0.16594000      -0.97992900
C       -0.42520000      -0.15014900      -0.88101400
C        0.13426700      -1.44013600      -0.24690400
C        1.43602800      -1.03487700       0.47059300
C        1.54551700       0.49657600       0.35713100
C        0.13041200       0.99802200       0.00335600
C       -0.71656800       1.25909100       1.25182300
H       -2.19965400      -0.95500800      -1.54246800
H       -2.23077300       0.68988100      -1.41197200
H        0.03302500      -0.03591000      -1.89415600
H        0.30550500      -2.21716500      -0.99808500
H       -0.58590300      -1.84974600       0.46615600
H        2.30939200      -1.52494100       0.03089500
H        1.40752700      -1.34389700       1.51930300
H        2.24214000       0.76349900      -0.44456500
H        1.93095700       0.95089300       1.27354800
H        0.18835700       1.93364500      -0.57549900
H       -0.79787700       0.36348800       1.86303600
H       -1.72253400       1.57200100       0.98147200
H       -0.27124900       2.04368200       1.86192900
