22
Properties=species:S:1:pos:R:3 pbc="F F F"
N       -2.99950800      -0.68632400      -0.95267600
C       -1.54373300      -0.78995200      -0.81935300
C       -0.91250800       0.59918000      -0.67935700
C        0.61977400       0.58005200      -0.61357100
C        1.21850900      -0.08518100       0.64882500
C        2.73783900      -0.24352300       0.49477600
C        0.88600700       0.69468400       1.92742400
H       -3.41610000      -1.60567900      -1.07330900
H       -3.24632400      -0.11160300      -1.75434700
H       -1.08609900      -1.31753400      -1.68386300
H       -1.31812800      -1.40135100       0.06595900
H       -1.32436000       1.09800900       0.20322100
H       -1.21460800       1.20937200      -1.53890800
H        0.98945600       1.60932200      -0.67977500
H        1.00678900       0.06102400      -1.49836400
H        0.78624000      -1.09397000       0.74600300
H        3.22365600       0.72500500       0.39264500
H        2.98123000      -0.83358300      -0.38681900
H        3.16630600      -0.74117100       1.36245000
H        1.29084200       1.70398300       1.88573300
H        1.31092900       0.20081600       2.79897500
H       -0.18860500       0.77006700       2.07666200
