18
Properties=species:S:1:pos:R:3 pbc="F F F"
N       -0.49434700       2.27071300       1.64334200
C       -1.37985400       1.11597600       1.51955000
C       -0.88046200       0.07662700       0.55543900
C        0.32183300       0.09440700      -0.04958200
C        0.81173700      -0.92062300      -0.99198000
C        2.03925000      -0.80170700      -1.53882100
C       -0.07565400      -2.08775000      -1.33404100
H       -0.86816400       2.93669200       2.31398700
H       -0.38519800       2.73875600       0.74730300
H       -2.41107300       1.41096300       1.21596300
H       -1.49973300       0.65654800       2.51605400
H       -1.57205500      -0.74348300       0.36033900
H        1.00575800       0.91418600       0.16533800
H        2.68027500       0.03633400      -1.29390700
H        2.42010100      -1.53852900      -2.23457300
H       -0.31925100      -2.66719200      -0.44309900
H        0.40692500      -2.75030300      -2.04797300
H       -1.01824700      -1.75055100      -1.76621500
