18
Properties=species:S:1:pos:R:3 pbc="F F F"
C        1.26865100       0.28314000       2.17514700
C        0.67052800      -1.08510200       2.10465400
C       -0.22065000      -1.53808900       1.19990500
C       -0.79907200      -0.83352600       0.05444000
C       -0.22572600       0.15252600      -0.66232100
C       -0.90066400       0.82758400      -1.82904300
N        0.06760300       1.49639900      -2.69988800
H        1.46700600       0.55819200       3.21047300
H        0.61334900       1.03483000       1.73823500
H        2.22317700       0.33000600       1.64444000
H        0.98032700      -1.77275300       2.89160900
H       -0.59719700      -2.55183400       1.34339300
H       -1.77872300      -1.19757800      -0.26216000
H        0.77743000       0.49461600      -0.41753700
H       -1.66400600       1.54514700      -1.44501400
H       -1.46597100       0.09393200      -2.42386800
H        0.61698800       2.17314600      -2.17665300
H       -0.40400400       1.97830800      -3.46039200
