20
Properties=species:S:1:pos:R:3 pbc="F F F"
C        0.21716300       2.19478400      -1.09627700
C       -0.12502200       0.75798100      -1.47678100
C       -1.06957700       0.09504700      -0.48217500
N       -1.26658200      -1.36298700      -0.54146300
C       -0.61465500      -0.78074900       0.64305900
C        0.84584500      -1.10950400       0.92517800
C        1.47008900      -0.17560400       1.95695900
H        0.87104400       2.64762300      -1.83865800
H        0.72272400       2.23720500      -0.13328500
H       -0.68211400       2.80376800      -1.02618600
H        0.79524600       0.17290300      -1.57345700
H       -0.59284400       0.75337400      -2.46890800
H       -2.00377000       0.64952700      -0.32384900
H       -0.56565800      -1.78750900      -1.15496400
H       -1.25165000      -0.79758900       1.53684700
H        0.91387900      -2.14182500       1.28970900
H        1.42768800      -1.07702500      -0.00172900
H        0.92673100      -0.21709700       2.89907900
H        1.45775400       0.85659900       1.61159000
H        2.50398500      -0.45077800       2.15427100
