12
Properties=species:S:1:pos:R:3 pbc="F F F"
C       -2.13015500       2.17896500       0.03476900
C       -0.98124700       1.84344700      -0.16000000
C        0.38808600       1.51458800      -0.41751500
C        0.97331900       0.35317700      -0.07271400
C        0.27144200      -0.76096400       0.66042700
C        0.58198200      -2.08079800       0.10670800
N        0.82405300      -3.12150500      -0.31966800
H       -3.14289300       2.45048200       0.20903300
H        0.97017300       2.28067600      -0.93080700
H        2.02285300       0.19704000      -0.31369400
H       -0.81327200      -0.60824200       0.64391300
H        0.57420000      -0.75992200       1.71918000
