15
Properties=species:S:1:pos:R:3 pbc="F F F"
C       -0.74898800       0.27758700       1.83226300
C        0.67383300      -0.16523700       1.52424400
C        1.19681500       0.27116500       0.15723800
N        0.51194900       1.33423300      -0.57074500
C        0.50209700      -0.01640900      -1.14729400
C       -0.76481200      -0.72507500      -1.22998000
N       -1.73117100      -1.34134700      -1.35025700
H       -1.02863500      -0.02772000       2.83841100
H       -1.46007100      -0.15967700       1.13676000
H       -0.83766000       1.35921200       1.76766500
H        0.75256600      -1.25623100       1.60703900
H        1.34910400       0.24003500       2.28740800
H        2.29417800       0.28412600       0.08661000
H        1.17255800       1.93575800      -1.06868700
H        1.13885000      -0.17788500      -2.02702100
