22
Properties=species:S:1:pos:R:3 pbc="F F F"
N        0.14854000       0.48603500      -2.24530500
C       -0.29734700       1.24261400      -1.07265900
C        0.24393400       0.65597900       0.25190600
C       -0.24109600      -0.80522900       0.51712500
C        0.22211900      -1.31280500       1.89162800
C       -1.76823800      -0.93755900       0.40908200
C        1.77536300       0.76182500       0.28049500
H       -0.20712900       0.90923000      -3.09837800
H       -0.18055400      -0.47482200      -2.20079200
H       -1.40456300       1.31414700      -1.02381100
H        0.06582800       2.27640000      -1.17186800
H       -0.15504000       1.28859500       1.06285600
H        0.20853400      -1.45915900      -0.24714700
H       -0.12922300      -0.66029400       2.68874100
H        1.30609600      -1.36767500       1.95488000
H       -0.17093000      -2.30992200       2.08071300
H       -2.27191600      -0.24204300       1.07798300
H       -2.08163000      -1.94372800       0.68098500
H       -2.11908500      -0.74557200      -0.60249300
H        2.22228200       0.11750200      -0.47327700
H        2.18036900       0.48280300       1.25081300
H        2.08876900       1.78333400       0.07246900
