16
Properties=species:S:1:pos:R:3 pbc="F F F"
C        0.02924100       0.28861400       3.52127700
C       -0.15710800       0.27022900       2.07646700
C       -0.29854800       0.25609700       0.87324100
C       -0.50804300       0.24980300      -0.56730000
N        0.47483600       0.92860100      -1.43096300
C        0.40613700      -0.53446500      -1.46554500
C       -0.10699300      -1.18033700      -2.73460100
H        0.61139500       1.15999400       3.82688000
H        0.55630400      -0.60614000       3.85813800
H       -0.93295300       0.32788800       4.03460400
H       -1.55059800       0.38470600      -0.88102300
H        1.27727800       1.23817200      -0.87754700
H        1.23651700      -1.06147000      -0.97989100
H       -0.91904000      -0.59955000      -3.16516600
H       -0.47467600      -2.18751000      -2.53998000
H        0.68379500      -1.25594400      -3.48051300
