20
Properties=species:S:1:pos:R:3 pbc="F F F"
C       -1.99043400       0.46724700      -1.00069200
C       -0.45625000       0.44278800      -0.93396300
C        0.02874600       0.86467200       0.44363700
C        1.15731800       0.46593000       1.04416800
C        1.60144200       0.95098400       2.38956200
C        0.09572100      -0.91882300      -1.40607100
N       -0.37911300      -2.01721700      -0.56407100
H       -2.37904300       1.43645400      -0.69231100
H       -2.41842200      -0.29200100      -0.35098200
H       -2.33454200       0.27135200      -2.01442400
H       -0.08773600       1.20137000      -1.65169500
H       -0.60376700       1.58943200       0.95896300
H        1.81756300      -0.24960600       0.55450400
H        0.88614900       1.64875700       2.81883000
H        2.56900600       1.45189200       2.32348600
H        1.72505300       0.11788600       3.08381600
H        1.20546300      -0.87287200      -1.44378800
H       -0.23421400      -1.09706200      -2.44113100
H       -0.17267300      -1.82833500       0.41391600
H        0.06170300      -2.89353400      -0.83053900
