14
Properties=species:S:1:pos:R:3 pbc="F F F"
C       -3.18055900       0.90857400      -1.07139500
C       -1.84562500       0.99816300      -0.97655500
C       -1.05526800       0.28832000       0.02291000
C        0.28367400       0.39387900       0.11578600
C        1.10549500      -0.31407300       1.16181900
C        2.25831400      -1.01669600       0.59209600
N        3.16752500      -1.56854000       0.15368100
H       -3.72712300       1.45332000      -1.83078800
H       -3.75339300       0.28825700      -0.39154600
H       -1.29687500       1.62991800      -1.67494500
H       -1.59458700      -0.35500100       0.71857100
H        0.82592000       1.03250300      -0.58057500
H        0.49113000      -1.03090500       1.71893800
H        1.48606100       0.41268200       1.89660900
