15
Properties=species:S:1:pos:R:3 pbc="F F F"
N       -2.41257900      -0.28771600       0.79528300
C       -1.17954500      -0.25449800       0.38471200
N       -0.38466500      -1.35007600       0.07718900
C        0.89057400      -0.92457100      -0.33235200
C        0.97884700       0.42590600      -0.31091400
C       -0.34755300       0.98632300       0.15304400
C        2.16338000       1.26282500      -0.67494300
H       -2.77754300      -1.24030800       0.87956900
H       -0.67712600      -2.31714800       0.14240400
H        1.64411100      -1.65256900      -0.61243500
H       -0.80958800       1.64699600      -0.59123500
H       -0.25545400       1.58598900       1.06717700
H        2.99879100       0.64025900      -0.98702000
H        2.49342200       1.87473300       0.16761700
H        1.92987800       1.95067800      -1.49065400
