17
Properties=species:S:1:pos:R:3 pbc="F F F"
C       -0.46761000      -2.70241000       0.41976400
C       -0.55507100      -1.22434700       0.73543800
N       -1.59639000      -0.44618300       0.05467200
C       -0.18550300      -0.17763500      -0.27082900
C        0.41973200       1.13502100       0.17155900
C        1.75887900       1.56075800      -0.33046500
N        0.54615200       2.22440100      -0.80556300
H       -1.19417200      -3.26919400       1.00119400
H        0.52175500      -3.09476200       0.65441200
H       -0.66522300      -2.88604800      -0.63322000
H       -0.38554800      -0.96758200       1.79009500
H       -1.96527300       0.28208200       0.67146200
H        0.10635800      -0.50926200      -1.27473400
H        0.11891100       1.46857100       1.17254600
H        2.28481400       0.91337800      -1.03578400
H        2.40811200       2.17000100       0.30013700
H        0.29936200       1.89697200      -1.74267300
