17
Properties=species:S:1:pos:R:3 pbc="F F F"
C        0.23079300       0.48104000       2.67922200
C       -0.49528300       0.45173300       1.35058400
N       -0.37058800       1.60223400       0.44502300
C        0.25606300       0.32840300       0.06066100
C       -0.33861600      -0.39398800      -1.12900800
C        0.09498000      -1.77584900      -1.49010000
N        0.54139200      -0.62803900      -2.27847400
H       -0.30745200       1.08833200       3.40701800
H        1.23060500       0.89711500       2.57096000
H        0.32706900      -0.52132500       3.09622100
H       -1.50904400       0.03506200       1.39141400
H        0.33369000       2.25708900       0.79318800
H        1.34980100       0.29197200       0.12493800
H       -1.37669800      -0.12588900      -1.35954000
H       -0.62556700      -2.45279000      -1.95385200
H        0.87472000      -2.27122100      -0.90917900
H        0.01962800      -0.56574400      -3.15516200
