18
Properties=species:S:1:pos:R:3 pbc="F F F"
C        0.00334300      -2.24332100       0.56452500
C       -0.67580300      -0.95378600       0.18436900
C       -1.96523000      -0.73350100       0.47710800
C        0.18638200       0.03430500      -0.57246800
C       -0.23316100       1.51159600      -0.69135800
N        1.11450600       1.93541800      -0.25717000
C        1.47145800       0.55205200       0.11382400
H       -0.67421800      -2.91073900       1.09048300
H        0.86473400      -2.05453200       1.20664000
H        0.37506900      -2.76062100      -0.32099300
H       -2.55218900      -1.47662900       1.00238700
H       -2.46317300       0.18715500       0.19975600
H        0.42297700      -0.39538300      -1.55946300
H       -1.03139500       1.81677900       0.00375500
H       -0.50945700       1.86220000      -1.69896800
H        1.11502900       2.59229500       0.52603400
H        1.49936300       0.38110100       1.20244200
H        2.42979400       0.20636900      -0.30788100
