19
Properties=species:S:1:pos:R:3 pbc="F F F"
C       -2.20655400       0.10467000      -0.94101200
C       -0.71658200       0.13592900      -1.27593300
C        0.16018200      -1.03606500      -0.78966200
C        1.09634800       0.02438400      -0.17363100
N        0.09048200       1.08663100      -0.46129900
C        1.48456900      -0.10418000       1.31802500
N        0.33287800      -0.14790500       2.22532900
H       -2.71116300      -0.68114700      -1.50015500
H       -2.67866300       1.05281200      -1.19167000
H       -2.36676100      -0.07885800       0.11918100
H       -0.59025600       0.31857700      -2.36254200
H        0.59532500      -1.66868600      -1.56769000
H       -0.32832300      -1.67933800      -0.05312000
H        2.01842900       0.15531200      -0.77699000
H        0.46191500       1.87758300      -0.99302100
H        2.08935700      -1.00965500       1.46509400
H        2.11902500       0.75077500       1.59572000
H       -0.20272800      -0.99877700       2.06944200
H       -0.27745100       0.64190700       2.02081400
