20
Properties=species:S:1:pos:R:3 pbc="F F F"
C       -0.71559500       2.94217600       0.09752400
C       -0.21517000       1.58591900       0.58359800
C        0.42157000       0.76787100      -0.53428300
C       -0.39831000      -0.18671300      -1.35453200
C        0.65018700      -0.71350500      -0.41554500
C        0.25769800      -1.49913400       0.82886400
N        0.29441300      -2.94055600       0.55978500
H       -1.15330500       3.51030700       0.91597000
H       -1.47337100       2.82513100      -0.67423700
H        0.09757900       3.53104500      -0.32234900
H       -1.04778100       1.02984400       1.02557200
H        0.51504900       1.73978900       1.38798100
H        1.19133300       1.31213300      -1.08614100
H       -0.21047600      -0.24211800      -2.42275600
H       -1.43815300      -0.32405600      -1.07364700
H        1.55949500      -1.08381700      -0.89214600
H       -0.74217100      -1.17180900       1.18240000
H        0.96041300      -1.28204000       1.64954800
H       -0.31620600      -3.17371800      -0.21885500
H       -0.00558200      -3.46647300       1.37640100
