22
Properties=species:S:1:pos:R:3 pbc="F F F"
C       -1.14824100      -0.27620900      -2.86385600
C       -1.56679900      -0.44018800      -1.40748700
C       -1.01454000       0.64841700      -0.47520900
C        0.51151500       0.64523400      -0.30541400
C        1.07108100      -0.56321300       0.45872000
C        0.74956200      -0.55516400       1.95740400
N        1.33289200       0.61147700       2.62507000
H       -1.59918100      -1.04860300      -3.48371200
H       -0.06872400      -0.34791600      -2.97684000
H       -1.45979400       0.69085100      -3.25363000
H       -1.25818400      -1.42814200      -1.04973700
H       -2.66089000      -0.42408100      -1.34874900
H       -1.48842600       0.54313300       0.50659500
H       -1.31992600       1.62891000      -0.85725300
H        0.80563000       1.55838500       0.22133200
H        0.98570800       0.69196800      -1.29179400
H        2.16025900      -0.58213600       0.33382100
H        0.69629100      -1.49338800       0.01851900
H        1.11115700      -1.50672700       2.40454400
H       -0.33883900      -0.54077800       2.11327700
H        2.33850100       0.64248700       2.47855300
H        1.15071000       0.58243400       3.62463500
