17
Properties=species:S:1:pos:R:3 pbc="F F F"
N        0.99161000      -1.07004400       1.94738900
C        0.95898100       0.38197800       1.77484800
C        0.11854500      -0.50222200       0.91707000
C        0.48456000      -0.80180700      -0.53077300
C       -0.19166900       0.08797700      -1.57063300
N       -1.63321100       0.35026300      -1.50855900
C       -0.70257100       1.45318300      -1.26144700
H        0.45372300      -1.34932800       2.77026300
H        1.87145200       0.82180700       1.37006600
H        0.47946700       0.96924500       2.56096400
H       -0.95695400      -0.52379400       1.14179600
H        1.57117300      -0.72081300      -0.64554300
H        0.23855100      -1.84901800      -0.75274100
H        0.17024300      -0.08666800      -2.59186400
H       -2.02973600       0.00820600      -0.63031700
H       -0.63085000       1.82712700      -0.23821600
H       -0.68294400       2.22704000      -2.03060400
