19
Properties=species:S:1:pos:R:3 pbc="F F F"
C       -1.88278800      -0.22859000      -0.16907100
C       -0.39467700      -0.17108500       0.14900100
C       -0.08574300      -0.24492300       1.64941700
N        1.35215200      -0.24261900       1.90579700
N        0.52373100      -0.93529900      -0.72500700
C        0.55878500       0.53989600      -0.76852600
C        0.12497500       1.25770100      -2.02982800
H       -2.34259500      -1.10078100       0.29655000
H       -2.06776700      -0.28998500      -1.23889500
H       -2.40053900       0.65234500       0.21151100
H       -0.57920700      -1.14938200       2.06866800
H       -0.55280800       0.61245300       2.16353200
H        1.80731400      -0.91844700       1.29430600
H        1.54651900      -0.48639200       2.87336900
H        0.01605700      -1.29663300      -1.53695300
H        1.45874800       0.95917700      -0.30571500
H       -0.70183700       0.75245300      -2.52433300
H        0.94900300       1.31347800      -2.74096000
H       -0.18737200       2.27915100      -1.81257000
