18
Properties=species:S:1:pos:R:3 pbc="F F F"
C       -0.74176000       1.72196900       0.85424800
C       -0.45289700       0.30935300       0.36008200
C       -1.35078000      -0.79851300       0.85098100
C       -1.45635100      -0.32204700      -0.56554000
C        1.03382800       0.02705400       0.17638700
C        1.54996700      -1.17565400      -0.53309800
N        1.64614300       0.14680500      -1.15438600
H       -1.80916800       1.87794800       0.99242600
H       -0.37989100       2.46586600       0.14524200
H       -0.24703200       1.91102400       1.80697800
H       -2.15915500      -0.54546800       1.52978300
H       -0.91278700      -1.77773900       1.01823900
H       -2.33241300       0.25874300      -0.83548100
H       -1.10150200      -0.98288600      -1.35063200
H        1.66123500       0.43664700       0.97857200
H        0.84397700      -1.88510900      -0.96876700
H        2.50052300      -1.61512100      -0.22572700
H        0.92117100       0.25549300      -1.86830300
