18
Properties=species:S:1:pos:R:3 pbc="F F F"
C       -1.63610900      -0.94638500      -0.57934700
C       -0.15377900      -0.88182900      -0.81163900
C        0.48603200      -1.78346600      -1.57034000
C        0.60681900       0.23755600      -0.12039600
C        0.74437800       0.16179200       1.42209700
C        0.19195400       1.58968000       1.46054500
N       -0.12502100       1.52842200       0.01873200
H       -2.08962000      -1.77452600      -1.11868500
H       -2.11097400      -0.01805800      -0.89707800
H       -1.85435900      -1.06566800       0.48296500
H       -0.04454400      -2.59957400      -2.04536100
H        1.55598300      -1.72261100      -1.73206800
H        1.59395100       0.36816300      -0.60640300
H        1.76089500       0.02624500       1.79992400
H        0.09689700      -0.58117600       1.89335400
H        0.94342800       2.35497300       1.71536300
H       -0.68832800       1.75721900       2.10207800
H        0.27604100       2.29197100      -0.53073600
