20
Properties=species:S:1:pos:R:3 pbc="F F F"
C       -1.94831400      -0.39373200       0.23341200
C       -0.44110100      -0.39670500       0.47279400
C       -0.07537900      -0.52729300       1.94832900
N        0.40257200      -1.16435500      -0.46953100
C        0.48787500       0.31277000      -0.48965100
C       -0.07380600       1.03795500      -1.70894400
C        1.80502600       0.90798400       0.00028300
H       -2.41525500      -1.23489300       0.74521200
H       -2.19916600      -0.47121200      -0.82154700
H       -2.40545700       0.51590000       0.62292000
H       -0.60000000      -1.37010700       2.39746900
H       -0.36022000       0.36724000       2.50224500
H        0.98933800      -0.68968700       2.08615800
H       -0.15867800      -1.49877600      -1.25727600
H       -0.92550100       0.51935600      -2.14157300
H        0.68754000       1.12318400      -2.48385500
H       -0.38971300       2.04942800      -1.45354200
H        2.28299100       0.27244200       0.73954800
H        1.65017000       1.89175200       0.44355700
H        2.50014400       1.02998200      -0.82993500
