12
Properties=species:S:1:pos:R:3 pbc="F F F"
C       -3.46329600      -0.76491500      -0.15131200
C       -1.96699000      -0.77180100      -0.15268500
C       -1.21629600       0.32772500       0.06488600
C        0.20996600       0.32501500       0.06434400
C        1.42999800       0.38930300       0.07702200
C        2.82005000       0.42101400       0.08324800
N        3.97980700       0.44970600       0.08887800
H       -3.85901500      -1.75708800      -0.34848000
H       -3.85946000      -0.08879100      -0.91024800
H       -3.85944100      -0.43039200       0.80850600
H       -1.47073700      -1.72201400      -0.34066700
H       -1.69058400       1.29229100       0.25572600
