20
Properties=species:S:1:pos:R:3 pbc="F F F"
C       -1.41315500       0.25967100       2.39370700
C       -0.51691100      -0.80280000       1.83869000
C       -0.22883500      -1.03113200       0.54929000
C       -0.74251400      -0.27277700      -0.64363000
C        0.36861900       0.50559800      -1.42455700
N        1.03359300       1.51873400      -0.58703600
C        1.41310300      -0.43193600      -2.03767900
H       -0.86344200       0.90420600       3.08205800
H       -2.22861800      -0.18724000       2.96528100
H       -1.84711500       0.88504500       1.61816700
H       -0.06232600      -1.45447300       2.58544000
H        0.44853600      -1.85461600       0.32141900
H       -1.51786400       0.43758300      -0.34213000
H       -1.21655000      -0.97926900      -1.33705700
H       -0.13952500       1.04073500      -2.24953600
H        1.52534900       1.06585300       0.18031800
H        0.34530100       2.15220000      -0.18739300
H        1.97287600      -0.95786100      -1.26691000
H        2.12454300       0.13158200      -2.63706000
H        0.94184500      -1.17462500      -2.67826900
