20
Properties=species:S:1:pos:R:3 pbc="F F F"
C        0.18947300      -2.50248800      -1.25054700
C        1.02804600      -1.40470500      -0.60364600
C        0.19118600      -0.41799400       0.20312100
C        0.70086000       0.96147600       0.48701400
C       -0.45557100       0.77113100      -0.47793200
C       -1.86576200       1.18907800      -0.12031100
N        0.51149300       1.53628700       1.81133000
H        0.81611900      -3.18680500      -1.81912500
H       -0.54944100      -2.08090800      -1.92864400
H       -0.34254600      -3.08235900      -0.49891900
H        1.58221700      -0.86361200      -1.37859500
H        1.78172700      -1.86365600       0.04828700
H       -0.40017800      -0.87443100       0.99913100
H        1.66138700       1.23543900       0.03575200
H       -0.20889400       0.89377900      -1.53422300
H       -2.05534200       1.06930200       0.94453300
H       -2.60305400       0.59249200      -0.65785300
H       -2.04145700       2.23456100      -0.37518700
H       -0.23898200       1.06542500       2.30900300
H        0.28859800       2.52777900       1.75034200
