18
Properties=species:S:1:pos:R:3 pbc="F F F"
C        1.86728100       0.77573200       0.86712500
C        1.48430900       0.76054700      -0.60697700
C        0.06652600       0.20417200      -0.88804500
N       -0.07212500      -1.23281200      -0.52974400
C       -1.18188700      -1.38982200       0.42986100
C       -1.73285800      -0.00439400       0.60768300
C       -1.04099300       0.88162800      -0.11288400
H        2.88469300       1.13896200       0.99851400
H        1.81000200      -0.22182700       1.29874600
H        1.20256000       1.42174600       1.43638200
H        2.21209300       0.16304600      -1.16727800
H        1.54822400       1.77759400      -1.00876400
H       -0.11225100       0.33850900      -1.98229400
H        0.80030800      -1.60998600      -0.15848800
H       -0.83385000      -1.82569500       1.38521200
H       -1.95499200      -2.08862400       0.04935800
H       -2.58701800       0.22069400       1.23942800
H       -1.23915400       1.94809300      -0.16319000
