13
Properties=species:S:1:pos:R:3 pbc="F F F"
C       -2.03411200       0.51259600      -0.00301400
C       -0.69052300       0.46709100      -0.00185300
C        0.28063300       1.57449700      -0.00506800
N        1.50350600       1.13527200      -0.00315000
N        1.46375100      -0.33440200       0.00168300
C        0.21408600      -0.70854100       0.00246400
C       -0.20986700      -2.14053000       0.00739700
H       -2.56924600       1.45701400      -0.00655900
H       -2.63106200      -0.39412300      -0.00050900
H        0.05031600       2.64022400      -0.00872400
H        0.65338800      -2.80062400       0.00480100
H       -0.82199600      -2.37148000      -0.86609600
H       -0.81351500      -2.36777700       0.88779900
