18
Properties=species:S:1:pos:R:3 pbc="F F F"
C       -1.81389600       0.23348500      -0.45289900
C       -0.28504500       0.27000700      -0.28025100
C        0.13885600      -0.52398900       0.96079000
C        0.13497800       0.09400000       2.31655900
N        1.39454500      -0.14065100       1.60921500
C        0.42934500      -0.23715600      -1.52598400
C        0.32804300       0.32056600      -2.73270100
H       -2.31073400       0.63317900       0.42967900
H       -2.16704900      -0.78489500      -0.60359300
H       -2.12127000       0.82553500      -1.31197000
H        0.00788600       1.32004000      -0.12073500
H       -0.06513300      -1.60243500       0.91194300
H       -0.07635900      -0.53404100       3.18445900
H       -0.14255600       1.14258900       2.43437200
H        1.87538400      -0.95879300       1.98882400
H        1.07068400      -1.10994600      -1.39948000
H       -0.29319000       1.19147400      -2.90808600
H        0.86683100      -0.07962700      -3.58300000
