18
Properties=species:S:1:pos:R:3 pbc="F F F"
C        1.35561300      -1.27112200      -1.82181300
C        1.68089500      -0.02960400      -1.46070400
C        1.41237600       0.62689200      -0.13313700
C        0.45547400      -0.11374300       0.81084800
C       -0.99425400      -0.07157000       0.34252800
C       -2.10872000      -0.21291600       1.32152300
N       -1.82472700       1.08300200       0.70146000
H        1.61500600      -1.64880900      -2.80314100
H        0.82653900      -1.94510400      -1.15903300
H        2.22038400       0.59629300      -2.17343900
H        1.03106700       1.63928600      -0.31577200
H        2.37721600       0.77072200       0.37405400
H        0.52332600       0.33884400       1.80655000
H        0.78166200      -1.15450800       0.92518800
H       -1.16439900      -0.43594400      -0.67638600
H       -1.86816000      -0.32198300       2.38131000
H       -3.04680100      -0.67957700       1.01678900
H       -1.33105500       1.69215100       1.35817900
