17
Properties=species:S:1:pos:R:3 pbc="F F F"
C       -0.56372900      -0.20932100       2.32620200
C       -0.69712600      -0.07326500       0.80417000
C       -0.07643700       1.23209300       0.28408000
C        0.08449600       1.15482100      -1.23079600
N        0.92440300       0.00772800      -1.57999400
N        0.61016800      -1.22426100      -1.01497100
C       -0.08774500      -1.26790500       0.07734800
H       -1.04990800       0.62150400       2.83521700
H        0.48120200      -0.22117600       2.62999200
H       -1.02304300      -1.13286000       2.67450100
H       -1.77872000      -0.05776300       0.57005700
H        0.90417500       1.38666400       0.74568900
H       -0.69574900       2.09247500       0.56101300
H        0.56153200       2.06737100      -1.62101400
H       -0.91264300       1.08900300      -1.71404000
H        1.08161300      -0.08588900      -2.58907300
H       -0.26720700      -2.26213800       0.50638500
