15
Properties=species:S:1:pos:R:3 pbc="F F F"
C        0.15989700       0.03308800      -2.15338700
C       -0.59957800      -0.20012700      -0.84241300
C       -0.07147600      -1.36514400      -0.01807300
N        0.18926800      -1.10164800       1.21567400
N       -0.14681400       0.30352600       1.49791700
C       -0.50611100       0.91672700       0.19342800
C        0.81860000       1.19531900       0.82547900
H        0.09145900      -0.83992700      -2.80002800
H        1.21400300       0.23294800      -1.97065700
H       -0.25319900       0.88258700      -2.69466600
H       -1.66136000      -0.37543900      -1.09369000
H        0.09795700      -2.36769400      -0.42223100
H       -1.28263700       1.68556100       0.22839000
H        0.97607900       2.15410000       1.32254300
H        1.71252500       0.73554300       0.40499500
