17
Properties=species:S:1:pos:R:3 pbc="F F F"
C       -2.66970800       0.96051900       0.19365900
C       -1.17443400       0.76047800       0.30652600
C       -0.23641400       1.55259000      -0.54565400
C       -0.41100400       0.07655900      -0.80745100
C        0.68943800      -0.88077000      -0.49295800
N        1.47556300      -0.70000900       0.52154000
N        2.51024600      -1.62795000       0.69868600
H       -3.00156400       1.79225900       0.81539100
H       -3.21219100       0.07248500       0.51836600
H       -2.96069800       1.17465900      -0.83269900
H       -0.81943100       0.53517500       1.31335800
H        0.70535800       1.86613500      -0.10666600
H       -0.65957700       2.24454000      -1.26801900
H       -0.99113500      -0.18041100      -1.69413300
H        0.80086600      -1.75789000      -1.16090100
H        2.73701500      -1.73497300       1.68760600
H        2.31342100      -2.53252900       0.26137900
