17
Properties=species:S:1:pos:R:3 pbc="F F F"
C       -1.45522600       0.76353400       1.17029300
C        0.04190200       0.96159600       1.09323600
C        0.63261700       1.89495100       0.07157700
C        0.84269000       0.41817000      -0.06721600
N        0.17685700      -0.26456400      -1.15605600
C       -0.08012200      -1.62414600      -1.13324400
N        0.06532700      -2.41367700      -0.11723000
H       -1.92465600       1.55808200       1.74986300
H       -1.69763600      -0.18447300       1.64786000
H       -1.89864400       0.76264500       0.17736000
H        0.55030200       0.94519600       2.05869600
H        1.48036500       2.50702300       0.36341600
H       -0.04737000       2.37170100      -0.62717300
H        1.84882900       0.03841700       0.16647700
H        0.14846800       0.20913400      -2.05406900
H       -0.46274700      -2.01974100      -2.08862000
H        0.41663000      -1.92492300       0.71132200
