16
Properties=species:S:1:pos:R:3 pbc="F F F"
N       -0.76575000       2.32627500       1.29717300
C       -1.04870600       1.27054700       0.93791400
C       -1.43255300      -0.06902500       0.49273400
C       -0.71474500      -0.50371600      -0.79996600
C        0.78773600      -0.64015800      -0.64365400
C        1.63091100       0.18029800      -1.28364600
C        1.27957800      -1.75323400       0.24043100
H       -2.51776300      -0.08056100       0.33255400
H       -1.22487900      -0.77936100       1.30213300
H       -0.94092700       0.21393400      -1.59327900
H       -1.13711800      -1.46734400      -1.11070700
H        1.26493000       0.97981700      -1.91581200
H        2.70342000       0.07607600      -1.17599000
H        0.93414600      -1.62098500       1.26676300
H        2.36523100      -1.79652200       0.25222600
H        0.89988000      -2.71725300      -0.10096900
