14
Properties=species:S:1:pos:R:3 pbc="F F F"
C       -3.48042700       0.27204100      -0.39350300
C       -2.28359100       0.09052600      -0.31067700
C       -0.87602200      -0.15688800      -0.27494900
C       -0.07088900       0.22932000       0.73425800
C        1.39791200      -0.01440700       0.75664500
C        2.29771000       0.50410900      -0.32902100
N        1.97061000      -0.91195400      -0.25399300
H       -4.52802500       0.44232800      -0.43787200
H       -0.45589600      -0.70017000      -1.12241300
H       -0.48793900       0.76304700       1.58715900
H        1.84323900      -0.06648900       1.75858200
H        3.31535600       0.80387100      -0.06688700
H        1.86186900       1.04092700      -1.17272600
H        2.74896300      -1.44803700       0.13559500
