20
Properties=species:S:1:pos:R:3 pbc="F F F"
C       -1.42099300       2.17748600      -1.18366300
C       -0.21437100       1.42527900      -1.65162500
C        0.13251500       0.17483400      -1.31594700
C       -0.62667300      -0.75354200      -0.40263800
C        0.28377900      -1.71899400       0.37012500
C        1.27413200      -1.02634400       1.31419800
N        0.59388700      -0.37281500       2.43537200
H       -2.11076700       2.35028000      -2.01208600
H       -1.13902400       3.15836600      -0.79891200
H       -1.96283300       1.64716100      -0.40467900
H        0.42964000       1.96770100      -2.34420000
H        1.03995900      -0.23756600      -1.75828600
H       -1.32852700      -1.35034900      -1.00351500
H       -1.24661800      -0.18315300       0.29653000
H        0.84926700      -2.32641900      -0.34577800
H       -0.33863900      -2.41265000       0.94433400
H        1.89544900      -0.31155300       0.73459700
H        1.96838200      -1.77722800       1.72065500
H       -0.05367900       0.33364500       2.09559600
H        1.26983700       0.07916700       3.04543600
