20
Properties=species:S:1:pos:R:3 pbc="F F F"
C       -2.39211700       1.06327900      -0.10744400
C       -0.86324000       0.94318700      -0.17518700
C       -0.43426300      -0.54241300      -0.12640700
C        1.06695500      -0.74135500       0.03710200
N        1.51114000      -2.00938100       0.62338900
C        1.70730100      -0.77352800       1.38284700
C       -0.32063600       1.65971900      -1.41931600
H       -2.77943400       0.59877700       0.79720200
H       -2.86091800       0.57595300      -0.96016300
H       -2.69960200       2.10701400      -0.10916300
H       -0.44623700       1.44586500       0.71296500
H       -0.77247400      -1.04665100      -1.03957900
H       -0.94688400      -1.03443400       0.70551000
H        1.68441900      -0.35886300      -0.78658000
H        2.38997000      -2.31808700       0.20247500
H        2.73174300      -0.41058400       1.49223400
H        1.09250300      -0.67789300       2.27901100
H       -0.68425900       1.18896100      -2.33061300
H        0.76695500       1.64168800      -1.44422000
H       -0.63776200       2.70058800      -1.43236700
