18
Properties=species:S:1:pos:R:3 pbc="F F F"
C       -2.06306300       0.71702200      -0.23181900
C       -0.65827400       0.28986200       0.12728600
N       -0.48381800      -1.14768000       0.40327400
C        0.94488300      -1.46419500       0.18313900
C        1.54727700      -0.34602900      -0.70399700
C        0.58593300       0.81773600      -0.54423700
C        0.25976100       1.20843600       0.88169600
H       -2.43123400       0.17579200      -1.10456900
H       -2.09932900       1.78072300      -0.45610200
H       -2.75576500       0.52369400       0.58747500
H       -1.06312500      -1.68152800      -0.25070200
H        1.04088900      -2.45963900      -0.26784200
H        1.47558900      -1.50457500       1.14915100
H        1.59607300      -0.65423500      -1.75519200
H        2.57156200      -0.10516800      -0.39909100
H        0.54808900       1.58670700      -1.31477600
H       -0.07436600       2.22902600       1.04036200
H        0.87924500       0.80596900       1.67595400
