17
Properties=species:S:1:pos:R:3 pbc="F F F"
C       -1.06393200       0.38464800      -2.21196000
C       -0.92419500       0.24618600      -0.69678900
C       -0.18380300      -1.03180900      -0.24550900
C        0.64720900      -0.58913600       0.94967100
N        1.34425100      -1.32292000       1.76680700
N        0.56522000       0.77825500       1.05817800
C       -0.13661900       1.40825500      -0.03928400
H       -1.63032800      -0.44705600      -2.62551000
H       -0.08975100       0.40154800      -2.69702000
H       -1.58337000       1.30526600      -2.47146800
H       -1.93436200       0.23197000      -0.25995400
H        0.47717700      -1.41036200      -1.03305600
H       -0.86868100      -1.84619900       0.00522700
H        1.27939100      -2.31869300       1.54973800
H        1.19256700       1.29572700       1.66463700
H        0.56423500       1.88001500      -0.75742000
H       -0.80513700       2.21157500       0.31316200
