20
Properties=species:S:1:pos:R:3 pbc="F F F"
C       -1.46651000       0.08145300       2.03162600
C       -1.79637800       0.22155300       0.55090600
C       -1.29891200      -0.94986200      -0.30706200
C        0.22945000      -1.07629800      -0.38978200
C        0.90240200       0.11871600      -1.05419900
C        2.35840200       0.38612600      -0.87568600
N        1.36166900       1.21561300      -0.19765300
H       -1.88160600       0.91355500       2.59678300
H       -0.39158100       0.07107000       2.19483800
H       -1.87781600      -0.84001000       2.44021600
H       -1.37261200       1.15642600       0.17244100
H       -2.88283200       0.30301300       0.43108000
H       -1.70184700      -0.83944900      -1.32094000
H       -1.70997100      -1.88660200       0.08585100
H        0.47131500      -1.98492400      -0.95737100
H        0.64884500      -1.21583900       0.61021800
H        0.46653800       0.41733900      -2.01785700
H        2.91808000       0.84395300      -1.69424700
H        2.95240400      -0.25355700      -0.22120100
H        1.25868300       2.11560100      -0.67105400
